ELEMENTS
C H N O AR HE

END
SPECIES
H              H2             O             O2             OH   OHEX
H2O            N2             HO2           H2O2           AR
CO             CO2            HE            CH4            C2H6 HCO
END
THERMO ALL
   300.000  1000.000  5000.000
H                 L 6/94H   1    0    0    0G   200.000  6000.00  1000.00      1
 0.25000000E+01 0.00000000E+00 0.00000000E+00 0.00000000E+00 0.00000000E+00    2
 0.25473660E+05-0.44668285E+00 0.25000000E+01 0.00000000E+00 0.00000000E+00    3
 0.00000000E+00 0.00000000E+00 0.25473660E+05-0.44668285E+00 0.26219035E+05    4
H2                TPIS78H   2    0    0    0G   200.000  6000.00  1000.00      1
 2.93286575E+00 8.26608026E-04-1.46402364E-07 1.54100414E-11-6.88804800E-16    2
-8.13065581E+02-1.02432865E+00 2.34433112E+00 7.98052075E-03-1.94781510E-05    3
 2.01572094E-08-7.37611761E-12-9.17935173E+02 6.83010238E-01 0.00000000E+00    4
O                 L 1/90O   1    0    0    0G   200.000  6000.00  1000.00      1
 2.54363697E+00-2.73162486E-05-4.19029520E-09 4.95481845E-12-4.79553694E-16    2
 2.92260120E+04 4.92229457E+00 3.16826710E+00-3.27931884E-03 6.64306396E-06    3
-6.12806624E-09 2.11265971E-12 2.91222592E+04 2.05193346E+00 2.99687009E+04    4
O2                RUS 89O   2    0    0    0G   200.000  6000.00  1000.00      1
 3.66096065E+00 6.56365811E-04-1.41149627E-07 2.05797935E-11-1.29913436E-15    2
-1.21597718E+03 3.41536279E+00 3.78245636E+00-2.99673416E-03 9.84730201E-06    3
-9.68129509E-09 3.24372837E-12-1.06394356E+03 3.65767573E+00 0.00000000E+00    4
OH                IU3/03O   1 H  1    0    0G   200.000  6000.00  1000.00      1
 2.83853033E+00 1.10741289E-03-2.94000209E-07 4.20698729E-11-2.42289890E-15    2
 3.69780808E+03 5.84494652E+00 3.99198424E+00-2.40106655E-03 4.61664033E-06    3
-3.87916306E-09 1.36319502E-12 3.36889836E+03-1.03998477E-01 4.48613328E+03    4
OHEX              121286O   1H   1          G  0300.00   5000.00  1000.00      1
 0.02882730E+02 0.10139743E-02-0.02276877E-05 0.02174683E-09-0.05126305E-14    2
 5.02650000E+04 0.05595712E+02 0.03637266E+02 0.01850910E-02-0.16761646E-05    3
 0.02387202E-07-0.08431442E-11 5.00213000E+04 0.13588605E+01                   4
H2O               L 5/89H   2 O  1    0    0G   200.000  6000.00  1000.00      1
 0.26770389E+01 0.29731816E-02-0.77376889E-06 0.94433514E-10-0.42689991E-14    2
-0.29885894E+05 0.68825500E+01 0.41986352E+01-0.20364017E-02 0.65203416E-05    3
-0.54879269E-08 0.17719680E-11-0.30293726E+05-0.84900901E+00-0.29084817E+05    4
N2                G 8/02N   2    0    0    0G   200.000  6000.00  1000.00      1
 2.95257637E+00 1.39690040E-03-4.92631603E-07 7.86010195E-11-4.60755204E-15    2
-9.23948688E+02 5.87188762E+00 3.53100528E+00-1.23660988E-04-5.02999433E-07    3
 2.43530612E-09-1.40881235E-12-1.04697628E+03 2.96747038E+00 0.00000000E+00    4
HO2               T 1/09H   1O   2    0    0G   200.000  5000.00  1000.00      1
 4.17228741E+00 1.88117627E-03-3.46277286E-07 1.94657549E-11 1.76256905E-16    2
 3.10206839E+01 2.95767672E+00 4.30179807E+00-4.74912097E-03 2.11582905E-05    3
-2.42763914E-08 9.29225225E-12 2.64018485E+02 3.71666220E+00 1.47886045E+03    4
H2O2              T 8/03H   2O   2    0    0G   200.000  6000.00  1000.00      1
 4.57977305E+00 4.05326003E-03-1.29844730E-06 1.98211400E-10-1.13968792E-14    2
-1.80071775E+04 6.64970694E-01 4.31515149E+00-8.47390622E-04 1.76404323E-05    3
-2.26762944E-08 9.08950158E-12-1.77067437E+04 3.27373319E+00-1.63425145E+04    4
AR                G 5/97AR  1  0    0      0G   200.000  6000.00  1000.00      1
 2.50000000E+00 0.00000000E+00 0.00000000E+00 0.00000000E+00 0.00000000E+00    2
-7.45375000E+02 4.37967491E+00 2.50000000E+00 0.00000000E+00 0.00000000E+00    3
 0.00000000E+00 0.00000000E+00-7.45375000E+02 4.37967491E+00 0.00000000E+00    4
CO                RUS 79C   1O   1    0    0G   200.000  6000.00  1000.00      1
 0.30484859E+01 0.13517281E-02-0.48579405E-06 0.78853644E-10-0.46980746E-14    2
-0.14266117E+05 0.60170977E+01 0.35795335E+01-0.61035369E-03 0.10168143E-05    3
 0.90700586E-09-0.90442449E-12-0.14344086E+05 0.35084093E+01-0.13293628E+05    4
CO2               L 7/88C   1O   2    0    0G   200.000  6000.00  1000.00      1
 0.46365111E+01 0.27414569E-02-0.99589759E-06 0.16038666E-09-0.91619857E-14    2
-0.49024904E+05-0.19348955E+01 0.23568130E+01 0.89841299E-02-0.71220632E-05    3
 0.24573008E-08-0.14288548E-12-0.48371971E+05 0.99009035E+01-0.47328105E+05    4
HCO               T 5/03C  1 H  1 O  1    0 G   200.000  6000.00  1000.00      1
 3.92001542E+00 2.52279324E-03-6.71004164E-07 1.05615948E-10-7.43798261E-15    2
 3.65342928E+03 3.58077056E+00 4.23754610E+00-3.32075257E-03 1.40030264E-05    3
-1.34239995E-08 4.37416208E-12 3.87241185E+03 3.30834869E+00 5.08749163E+03    4
CH4               G 8/99C  1 H  4    0    0 G   200.000  6000.00  1000.00      1
 1.65326226E+00 1.00263099E-02-3.31661238E-06 5.36483138E-10-3.14696758E-14    2
-1.00095936E+04 9.90506283E+00 5.14911468E+00-1.36622009E-02 4.91453921E-05    3
-4.84246767E-08 1.66603441E-11-1.02465983E+04-4.63848842E+00-8.97226656E+03    4
HE                G 5/97HE 1    0    0    0 G   200.000  6000.00  1000.00      1
 2.50000000E+00 0.00000000E+00 0.00000000E+00 0.00000000E+00 0.00000000E+00    2
-7.45375000E+02 9.28723974E-01 2.50000000E+00 0.00000000E+00 0.00000000E+00    3
 0.00000000E+00 0.00000000E+00-7.45375000E+02 9.28723974E-01 0.00000000E+00    4
C2H6              G 8/88C   2H 6    0      0G   200.000  6000.00  1000.00      1
 4.04666411E+00 1.53538802E-02-5.47039485E-06 8.77826544E-10-5.23167531E-14    2
-1.24473499E+04-9.68698313E-01 4.29142572E+00-5.50154901E-03 5.99438458E-05    3
-7.08466469E-08 2.68685836E-11-1.15222056E+04 2.66678994E+00-1.00849652E+04    4
END

REACTIONS
H+O2<=>O+OH                     1.04E+14        0.00    15286.0
O+H2<=>H+OH                    5.080E+04       2.670  6.292E+03
OH+H2<=>H+H2O                  2.247E+08       1.520  3.450E+03
O+H2O<=>2OH                    3.445E+06       2.020  1.340E+04
H2+M<=>2H+M                    4.577E+19      -1.400  1.044E+05
H2/2.5/ H2O/12/ CO/1.9/ CO2/3.8/ HE/.83/ CH4/2/ C2H6/3/ 
2O+M<=>O2+M                    6.165E+15      -0.500  0.000E+00
H2/2.5/ H2O/12/ AR/.83/ CO/1.9/ CO2/3.8/ HE/.83/ CH4/2/ C2H6/3/
O+H+M<=>OH+M                   4.714E+18      -1.000  0.000E+00
H2/2.5/ H2O/12/ AR/.75/ CO/1.5/ CO2/2/ HE/.75/ CH4/2/ C2H6/3/ 
H+OH+M<=>H2O+M                   3.5E+22      -2.000  0.000E+00
H2/2.5/ H2O/12/ AR/.38/ HE/.38/ CO/1.9/ CO2/3.8/ CH4/2/ C2H6/3/
H+O2(+M)<=>HO2(+M)             4.650E+12       0.440  0.000E+00
LOW                  /         1.737E+19       -1.23  0.000E+00      /
troe                 /              0.67       1E-30       1E30       1E30 /
H2/1.3/ CO/1.9/ CO2/3.8/ HE/0/ H2O/10/ AR/0/ CH4/2/ C2H6/3/
H+O2(+AR)<=>HO2(+AR)           4.650E+12       0.440  0.000E+00
LOW                  /         6.810E+18      -1.200        0.0      /
troe                 /              0.70     1.0E-30    1.0E+30    1.0E+30 /
H+O2(+HE)<=>HO2(+HE)           4.650E+12       0.440  0.000E+00
LOW                  /         9.192E+18       -1.20  0.000E+00      /
troe                 /              0.59       1E-30       1E30       1E30 /
HO2+H<=>2OH                    7.079E+13        0.00  2.950E+02
H2+O2<=>H+HO2                  5.176E+05       2.433    53502.0
HO2+O<=>OH+O2                  3.250E+13       0.000  0.000E+00
HO2+OH<=>H2O+O2                2.456E+13       0.000 -4.970E+02
2HO2<=>H2O2+O2                 1.300E+11       0.000   -1630.00
DUPLICATE                    
2HO2<=>H2O2+O2                 3.658E+14       0.000   12000.00
DUPLICATE                    
H2O2(+H2O)<=>2OH(+H2O)          2.00E+12        0.90 4.8749E+04
LOW                  /         1.865E+25       -2.30  4.8749+04      /
troe                 /              0.51       1E-30      1E+30      /
H2O2(+M)<=>2OH(+M)              2.00E+12        0.90  4.8749+04
LOW                  /          2.49E+24       -2.30  4.8749+04      /
troe                 /              0.43       1E-30      1E+30      /
H2O/0/ CO2/1.6/ N2/1.5/ O2/1.2/ HE/0.65/ H2O2/7.7/ H2/3.7/ CO/2.8/
H2O2+H<=>H2O+OH                2.410E+13       0.000  3.970E+03
H2O2+H<=>H2+HO2                2.150E+10       1.000  6.000E+03
H2O2+O<=>OH+HO2                9.550E+06       2.000  3.970E+03
H2O2+OH<=>H2O+HO2               1.74E+12       0.000   3.18E+02
DUPLICATE                                             
H2O2+OH<=>H2O+HO2               7.59E+13       0.000  7.269E+03
DUPLICATE                    
CO+O(+M)<=>CO2(+M)             1.362E+10       0.000    2384.00
LOW                  /         1.173E+24       -2.79     4191.0      /
H2/2/ H2O/12/ CO/1.75/ CO2/3.6/ AR/0.7/ HE/0.7/
CO+O2<=>CO2+O                  1.119E+12       0.000   47700.00
CO+OH<=>CO2+H                  7.015E+04       2.053    -355.67
DUPLICATE                                            
CO+OH<=>CO2+H                  5.757E+12      -0.664     331.83
DUPLICATE                     
CO+HO2<=>CO2+OH                1.570E+05       2.180  1.794E+04
HCO+M<=>H+CO+M                 4.750E+11       0.660  1.487E+04
H2/2/ H2O/12/ CO/1.5/ CO2/2/ CH4/2/ C2H6/3/ 
HCO+O2<=>CO+HO2                7.580E+12       0.000  4.100E+02
HCO+H<=>CO+H2                  7.340E+13       0.000  0.000E+00
HCO+O<=>CO+OH                  3.020E+13       0.000  0.000E+00
HCO+O<=>CO2+H                  3.000E+13       0.000  0.000E+00
HCO+OH<=>CO+H2O                1.020E+14       0.000  0.000E+00
HCO+HO2=>CO2+H+OH              3.000E+13       0.000  0.000E+00
2HCO=>H2+2CO                   3.000E+12       0.000  0.000E+00
H+O+M<=>OHEX+M                  1.50E+13         0.0    5.975E3
H2/1/ H2O/6.5/ O2/0.4/ N2/0.4/ AR/0.35/
OHEX+H2O<=>OH+H2O              5.930E+12         0.5    -8.60E2
OHEX+H2<=>OH+H2                2.950E+12         0.5    -4.44E2
OHEX+N2<=>OH+N2                1.080E+11         0.5   -1.242E3
OHEX+OH<=>2OH                  6.010E+12         0.5    -7.64E2
OHEX+H<=>OH+H                  1.310E+12         0.5    -1.67E2
OHEX+AR<=>OH+AR                1.690E+12         0.0    4.135E3
OHEX<=>OH+HV                   1.450E+06         0.0        0.0
OHEX+O2<=>OH+O2                2.100E+12         0.5    -4.78E2
OHEX+CO2<=>OH+CO2              2.750E+12         0.5    -9.68E2
OHEX+CO<=>OH+CO                3.230E+12         0.5    -7.87E2
OHEX+CH4<=>OH+CH4              3.360E+12         0.5    -6.35E2
END
