ELEMENTS
O  H  C  N  AR HE
END

SPECIES
AR  N2  H  H2  O  O2  OH  H2O  HO2  H2O2  HCO  CO  CO2  HE
END

THERMO ALL
   200.000  1000.000  6000.000
N2                G 8/02N   2.              G   200.000  6000.000 1000.        1
 2.95257637E+00 1.39690040E-03-4.92631603E-07 7.86010195E-11-4.60755204E-15    2
-9.23948688E+02 5.87188762E+00 3.53100528E+00-1.23660988E-04-5.02999433E-07    3
 2.43530612E-09-1.40881235E-12-1.04697628E+03 2.96747038E+00 0.00000000E+00    4
AR                g 5/97AR  1               G   200.000  6000.000 1000.        1
 2.50000000E+00 0.00000000E+00 0.00000000E+00 0.00000000E+00 0.00000000E+00    2
-7.45375000E+02 4.37967491E+00 2.50000000E+00 0.00000000E+00 0.00000000E+00    3
 0.00000000E+00 0.00000000E+00-7.45375000E+02 4.37967491E+00 0.00000000E+00    4
HE                L10/90HE  1    0    0    0G   200.000  6000.000 1000.        1
 2.50000000E+00 0.00000000E+00 0.00000000E+00 0.00000000E+00 0.00000000E+00    2
-7.45375000E+02 9.28723974E-01 2.50000000E+00 0.00000000E+00 0.00000000E+00    3
 0.00000000E+00 0.00000000E+00-7.45375000E+02 9.28723974E-01 0.00000000E+00    4
O2                RUS 89O   2    0    0    0G   200.000  6000.000 1000.        1
 3.66096065E+00 6.56365811E-04-1.41149627E-07 2.05797935E-11-1.29913436E-15    2
-1.21597718E+03 3.41536279E+00 3.78245636E+00-2.99673416E-03 9.84730201E-06    3
-9.68129509E-09 3.24372837E-12-1.06394356E+03 3.65767573E+00 0.00000000E+00    4
O                 L 1/90O   1    0    0    0G   200.000  6000.000 1000.        1
 2.54363697E+00-2.73162486E-05-4.19029520E-09 4.95481845E-12-4.79553694E-16    2
 2.92260120E+04 4.92229457E+00 3.16826710E+00-3.27931884E-03 6.64306396E-06    3
-6.12806624E-09 2.11265971E-12 2.91222592E+04 2.05193346E+00 2.99687009E+04    4
H2                RUS 78H   2.   0.   0.   0G   200.000  6000.000 1000.        1
 0.29328305E+01 0.82659802E-03-0.14640057E-06 0.15409851E-10-0.68879615E-15    2
-0.81305582E+03-0.10243164E+01 0.23443029E+01 0.79804248E-02-0.19477917E-04    3
 0.20156967E-07-0.73760289E-11-0.91792413E+03 0.68300218E+00 0.00000000E+00    4
H                 L 6/94H   1    0    0    0G   200.000  6000.000 1000.        1
 0.25000000E+01 0.00000000E+00 0.00000000E+00 0.00000000E+00 0.00000000E+00    2
 0.25473660E+05-0.44668285E+00 0.25000000E+01 0.00000000E+00 0.00000000E+00    3
 0.00000000E+00 0.00000000E+00 0.25473660E+05-0.44668285E+00 0.26219035E+05    4
OH                IU3/03O   1H   1    0    0G   200.000  6000.000 1000.        1
 2.83853033E+00 1.10741289E-03-2.94000209E-07 4.20698729E-11-2.42289890E-15    2
 3.69780808E+03 5.84494652E+00 3.99198424E+00-2.40106655E-03 4.61664033E-06    3
-3.87916306E-09 1.36319502E-12 3.36889836E+03-1.03998477E-01 4.48613328E+03    4
H2O               L 5/89H   2O   1    0    0G   200.000  6000.000 1000.        1
 0.26770389E+01 0.29731816E-02-0.77376889E-06 0.94433514E-10-0.42689991E-14    2
-0.29885894E+05 0.68825500E+01 0.41986352E+01-0.20364017E-02 0.65203416E-05    3
-0.54879269E-08 0.17719680E-11-0.30293726E+05-0.84900901E+00-0.29084817E+05    4
HO2               T 1/09H   1O   2    0    0G   200.000  5000.000 1000.        1
 4.17228741E+00 1.88117627E-03-3.46277286E-07 1.94657549E-11 1.76256905E-16    2
 3.10206839E+01 2.95767672E+00 4.30179807E+00-4.74912097E-03 2.11582905E-05    3
-2.42763914E-08 9.29225225E-12 2.64018485E+02 3.71666220E+00 1.47886045E+03    4
H2O2              T 8/03H   2O   2    0    0G   200.000  6000.000 1000.        1
 4.57977305E+00 4.05326003E-03-1.29844730E-06 1.98211400E-10-1.13968792E-14    2
-1.80071775E+04 6.64970694E-01 4.31515149E+00-8.47390622E-04 1.76404323E-05    3
-2.26762944E-08 9.08950158E-12-1.77067437E+04 3.27373319E+00-1.63425145E+04    4
CO                TPIS79C   1O   1   00   00G   200.000  3500.000  1000.000    1
 2.71518561E+00 2.06252743E-03-9.98825771E-07 2.30053008E-10-2.03647716E-14    2
-1.41518724E+04 7.81868772E+00 3.57953347E+00-6.10353680E-04 1.01681433E-06    3
 9.07005884E-10-9.04424499E-13-1.43440860E+04 3.50840928E+00 8.67100000E+03    4
CO2               L 7/88C   1O   2   00   00G   200.000  3500.000  1000.000    1
 3.85746029E+00 4.41437026E-03-2.21481404E-06 5.23490188E-10-4.72084164E-14    2
-4.87591660E+04 2.27163806E+00 2.35677352E+00 8.98459677E-03-7.12356269E-06    3
 2.45919022E-09-1.43699548E-13-4.83719697E+04 9.90105222E+00 9.36546900E+03    4
HCO               L12/89H   1C   1O   1   00G   200.000  3500.000  1000.000    1
 2.77217438E+00 4.95695526E-03-2.48445613E-06 5.89161778E-10-5.33508711E-14    2
 4.01191815E+03 9.79834492E+00 4.22118584E+00-3.24392532E-03 1.37799446E-05    3
-1.33144093E-08 4.33768865E-12 3.83956496E+03 3.39437243E+00 9.98945000E+03    4
END

REACTIONS
2O+M<=>O2+M                    1.200E+17      -1.000          0
H2/ 2.40/ H2O/15.40/ AR/ .83/ HE/0.83/ CO/1.75/ CO2/3.6/ 
O+H+M<=>OH+M                   9.420E+18      -1.000          0
H2/2.00/ H2O/12.00/ AR/ .70/ HE/0.7/ CO/1.75/ CO2/3.6/ 
O+H2<=>H+OH                    3.870E+04       2.700       6260
O+HO2<=>OH+O2                  1.568E+13       0.000          0
O+H2O2<=>OH+HO2                9.630E+06       2.000       4000
H+O2(+M)<=>HO2(+M)             5.373E+12       0.440          0
LOW                  /6.644E+19   -1.400   0.00/
TROE                 /0.5  1E-30  1E+30 1E+30/
O2/0.75/ H2O/12/ AR/0.53/ HE/0.53/ CO/1.2/ CO2/2.4/ 
H+O2<=>O+OH                    2.853E+16      -.6707      17041
2H+M<=>H2+M                    1.835E+18      -1.000          0
H2/ .00/ H2O/ .00/ AR/ .63/ HE/0.63/ CO2/0.0/
2H+H2<=>2H2                    1.651E+17      -0.600          0
2H+H2O<=>H2+H2O                1.101E+20      -1.250          0
2H+CO2<=>H2+CO2                1.009E+21      -2.000          0
H+OH+M<=>H2O+M                 3.059E+22      -2.000          0
H2/ .73/ H2O/3.65/ AR/ .38/ HE/0.38/ CO/1.75/ CO2/3.6/
H+HO2<=>O+H2O                     1.191E+13   0.000         671
H+HO2<=>O2+H2                     3.738E+06   2.120       -1172
H+HO2<=>2OH                       8.329E+13   0.000         635
H+H2O2<=>HO2+H2                   1.210E+07   2.000        5200
H+H2O2<=>OH+H2O                   5.000E+12   0.000        3600
OH+H2<=>H+H2O                     1.974E+08   1.510        3430
2OH(+M)<=>H2O2(+M)                1.693E+10   0.869       -2191
LOW                  /            2.837E+11   0.869       -8548 /
TROE                 /                  1.0   1E-30       1E+30      1E+30 /
H2/2.00/ H2O/6.00/ AR/ .67/ HE/0.67/ CO/1.75/ CO2/3.6/
2OH<=>O+H2O                       4.493E+04   2.400       -2110
OH+HO2<=>O2+H2O                   4.775E+13   0.000        -497
OH+H2O2<=>HO2+H2O                 1.740E+12   0.000         318
DUPLICATE
OH+H2O2<=>HO2+H2O                 7.590E+13   0.000        7272
DUPLICATE
2HO2<=>O2+H2O2                    2.600E+11   0.000       -1630
DUPLICATE
2HO2<=>O2+H2O2                    8.400E+14   0.000       12000
DUPLICATE
O+OH+M<=>HO2+M                    1.000E+15   0.000           0
H2/2.00/ H2O/12.00/ AR/ .70/ HE/0.7/ CO/1.75/ CO2/3.6/
CO+O(+M)<=>CO2(+M)                8.980E+09   0.000        2384
LOW / 7.720E+23   -2.79   4191.00/
H2/2.0/ H2O/12/ CO/1.75/ CO2/3.6/ AR/0.7/HE/0.7/
CO+OH<=>CO2+H                     9.416E+04   2.053        -356
DUPLICATE
CO+OH<=>CO2+H                     7.693E+12  -0.664         332
DUPLICATE
CO+O2<=>CO2+O                     1.119E+12   0.000       47700
CO+HO2<=>CO2+OH                   1.570E+05   2.180       17943
HCO+H<=>CO+H2                     2.210E+14   0.000           0
HCO+O<=>CO+OH                     3.000E+13   0.000           0
HCO+O<=>CO2+H                     3.000E+13   0.000           0
HCO+OH<=>CO+H2O                   3.020E+13   0.000           0
HCO+O2<=>CO+HO2                   1.204E+10   0.807        -727
HCO+M<=>CO+H+M                    1.870E+17  -1.000       17000
H2/2.0/ H2O/12.0/ CO/1.75/ CO2/3.6/
END
