THERMO ALL
  300.000  1000.000  5000.000
AR                      AR  1               G     200.0    6000.0  1000.0      1
          2.5E0          0.0E0          0.0E0          0.0E0          0.0E0    2
     -7.45375E2   4.37967491E0          2.5E0          0.0E0          0.0E0    3
          0.0E0          0.0E0     -7.45375E2   4.37967491E0                   4
N2                      N   2               G     200.0    6000.0  1000.0      1
   2.95257637E0   1.3969004E-3 -4.92631603E-7 7.86010195E-11-4.60755204E-15    2
  -9.23948688E2   5.87188762E0   3.53100528E0 -1.23660988E-4 -5.02999433E-7    3
  2.43530612E-9-1.40881235E-12  -1.04697628E3   2.96747038E0                   4
HE                      HE  1               G     200.0    6000.0  1000.0      1
          2.5E0          0.0E0          0.0E0          0.0E0          0.0E0    2
     -7.45375E2  9.28723974E-1          2.5E0          0.0E0          0.0E0    3
          0.0E0          0.0E0     -7.45375E2  9.28723974E-1                   4
H2                      H   2               G     200.0    6000.0  1000.0      1
   2.93286575E0  8.26608026E-4 -1.46402364E-7 1.54100414E-11  -6.888048E-16    2
  -8.13065581E2  -1.02432865E0   2.34433112E0  7.98052075E-3  -1.9478151E-5    3
  2.01572094E-8-7.37611761E-12  -9.17935173E2  6.83010238E-1                   4
H                       H   1               G     200.0    6000.0  1000.0      1
          2.5E0          0.0E0          0.0E0          0.0E0          0.0E0    2
     2.547366E4  -4.4668285E-1          2.5E0          0.0E0          0.0E0    3
          0.0E0          0.0E0     2.547366E4  -4.4668285E-1                   4
O2                      O   2               G     200.0    6000.0  1000.0      1
   3.66096065E0  6.56365811E-4 -1.41149627E-7 2.05797935E-11-1.29913436E-15    2
  -1.21597718E3   3.41536279E0   3.78245636E0 -2.99673416E-3  9.84730201E-6    3
 -9.68129509E-9 3.24372837E-12  -1.06394356E3   3.65767573E0                   4
O                       O   1               G     200.0    6000.0  1000.0      1
   2.54363697E0 -2.73162486E-5  -4.1902952E-9 4.95481845E-12-4.79553694E-16    2
    2.9226012E4   4.92229457E0    3.1682671E0 -3.27931884E-3  6.64306396E-6    3
 -6.12806624E-9 2.11265971E-12   2.91222592E4   2.05193346E0                   4
H2O                     H   2O   1          G     200.0    6000.0  1000.0      1
    2.6770389E0   2.9731816E-3  -7.7376889E-7  9.4433514E-11 -4.2689991E-15    2
   -2.9885894E4      6.88255E0    4.1986352E0  -2.0364017E-3   6.5203416E-6    3
  -5.4879269E-9   1.771968E-12   -3.0293726E4  -8.4900901E-1                   4
OH                      H   1O   1          G     200.0    6000.0  1000.0      1
   2.83853033E0  1.10741289E-3 -2.94000209E-7 4.20698729E-11 -2.4228989E-15    2
   3.69780808E3   5.84494652E0   3.99198424E0 -2.40106655E-3  4.61664033E-6    3
 -3.87916306E-9 1.36319502E-12   3.36889836E3 -1.03998477E-1                   4
OHV                     H   1O   1          G     300.0    5000.0  1710.0      1
    2.8537604E0  1.02994334E-3 -2.32666477E-7 1.93750704E-11-3.15759847E-16    2
   5.03225473E4   5.76240468E0   3.41896226E0  3.19255801E-4 -3.08292717E-7    3
 3.64407494E-10-1.00195479E-13   5.00756946E4   2.51917016E0                   4
H2O2                    H   2O   2          G     200.0    6000.0  1000.0      1
   4.57977305E0  4.05326003E-3  -1.2984473E-6   1.982114E-10-1.13968792E-14    2
  -1.80071775E4  6.64970694E-1   4.31515149E0 -8.47390622E-4  1.76404323E-5    3
 -2.26762944E-8 9.08950158E-12  -1.77067437E4   3.27373319E0                   4
HO2                     H   1O   2          G     200.0    5000.0  1000.0      1
   4.17228741E0  1.88117627E-3 -3.46277286E-7 1.94657549E-11 1.76256905E-16    2
   3.10206839E1   2.95767672E0   4.30179807E0 -4.74912097E-3  2.11582905E-5    3
 -2.42763914E-8 9.29225225E-12   2.64018485E2    3.7166622E0                   4
HOCO                    C   1H   1O   2     G     200.0    6000.0  1000.0      1
   5.39206152E0  4.11221455E-3   -1.481949E-6  2.3987546E-10-1.43903104E-14    2
  -2.38606717E4  -2.23529091E0   2.92207919E0  7.62453859E-3  3.29884437E-6    3
 -1.07135205E-8 5.11587057E-12  -2.30281524E4   1.12925886E1                   4
CO                      C   1O   1          G     200.0    6000.0  1000.0      1
    3.0484859E0   1.3517281E-3  -4.8579405E-7  7.8853644E-11 -4.6980746E-15    2
   -1.4266117E4    6.0170977E0    3.5795335E0  -6.1035369E-4   1.0168143E-6    3
  9.0700586E-10 -9.0442449E-13   -1.4344086E4    3.5084093E0                   4
CO2                     C   1O   2          G     200.0    6000.0  1000.0      1
    4.6365111E0   2.7414569E-3  -9.9589759E-7  1.6038666E-10 -9.1619857E-15    2
   -4.9024904E4   -1.9348955E0     2.356813E0   8.9841299E-3  -7.1220632E-6    3
   2.4573008E-9 -1.4288548E-13   -4.8371971E4    9.9009035E0                   4
CH3O2H                  C   1H   4O   2     G     200.0    3000.0  1000.0      1
   4.20735213E0   1.5509466E-2 -7.66929578E-6  1.83432162E-9-1.72492118E-13    2
  -1.74303104E4   4.24021387E0   4.65854273E0  3.10653649E-4  4.25717961E-5    3
 -5.64767746E-8 2.26451339E-11  -1.70148766E4   4.93439159E0                   4
CH3O2                   C   1H   3O   2     G     200.0    3000.0  1000.0      1
   3.06355808E0  1.41402571E-2 -7.09719627E-6  1.72124732E-9-1.63773189E-13    2
  -1.24115232E2   1.06316786E1    5.5280458E0  -8.7739067E-3  5.35999599E-5    3
 -6.22370558E-8 2.35470499E-11  -1.16495256E2   1.56491488E0                   4
CH2O2H                  C   1H   3O   2     G     300.0    5000.0  1410.0      1
   9.24697852E0  4.60845541E-3 -1.53501472E-6  2.3443483E-10-1.34573106E-14    2
   4.11529953E3  -2.11503248E1   2.88976454E0  2.09465776E-2 -1.75190772E-5    3
  7.27819787E-9-1.18912344E-12    6.1239062E3   1.23802076E1                   4
CH4                     C   1H   4          G     200.0    6000.0  1000.0      1
   1.65326226E0  1.00263099E-2 -3.31661238E-6 5.36483138E-10-3.14696758E-14    2
  -1.00095936E4   9.90506283E0   5.14911468E0 -1.36622009E-2  4.91453921E-5    3
 -4.84246767E-8 1.66603441E-11  -1.02465983E4  -4.63848842E0                   4
CH3                     C   1H   3          G     200.0    6000.0  1000.0      1
    2.9781206E0    5.797852E-3    -1.97558E-6   3.072979E-10 -1.7917416E-14    2
    1.6509513E4    4.7224799E0    3.6571797E0   2.1265979E-3   5.4583883E-6    3
  -6.6181003E-9  2.4657074E-12    1.6422716E4    1.6735354E0                   4
CH2                     C   1H   2          G     200.0    6000.0  1000.0      1
   3.14631886E0  3.03671259E-3 -9.96474439E-7  1.5048358E-10-8.57335515E-15    2
   4.60412605E4   4.72341711E0   3.71757846E0   1.2739126E-3  2.17347251E-6    3
   -3.488585E-9 1.65208866E-12   4.58723866E4   1.75297945E0                   4
CH2(S)                  C   1H   2          G     200.0    6000.0  1000.0      1
   3.13501686E0  2.89593926E-3  -8.1666809E-7 1.13572697E-10-6.36262835E-15    2
   5.05040504E4   4.06030621E0   4.19331325E0 -2.33105184E-3  8.15676451E-6    3
 -6.62985981E-9 1.93233199E-12   5.03662246E4  -7.4673431E-1                   4
C                       C   1               G     200.0    6000.0  1000.0      1
     2.605583E0  -1.9593434E-4   1.0673722E-7  -1.642394E-11   8.187058E-16    2
    8.5411742E4    4.1923868E0    2.5542395E0  -3.2153772E-4   7.3379223E-7    3
 -7.3223487E-10  2.6652144E-13    8.5442681E4    4.5313085E0                   4
CH                      C   1H   1          G     200.0    6000.0  1000.0      1
    2.5209369E0   1.7653639E-3   -4.614766E-7  5.9289675E-11 -3.3474501E-15    2
    7.0946769E4    7.4051829E0    3.4897583E0    3.243216E-4  -1.6899751E-6    3
    3.162842E-9 -1.4061803E-12    7.0612646E4    2.0842841E0                   4
CHV                     C   1H   1          G     300.0    5000.0  1365.0      1
   2.21342975E0  2.15716841E-3 -5.73074267E-7 6.56809882E-11-2.67729778E-15    2
   1.04415563E5   9.20307557E0   3.50778851E0 -4.60811343E-4  1.32973337E-6    3
-5.15427373E-10 5.83223892E-14     1.039211E5   2.09978249E0                   4
CH3OH                   C   1H   4O   1     G     200.0    6000.0  1000.0      1
   3.52726795E0  1.03178783E-2 -3.62892944E-6 5.77448016E-10-3.42182632E-14    2
  -2.60028834E4   5.16758693E0   5.65851051E0 -1.62983419E-2  6.91938156E-5    3
 -7.58372926E-8  2.8042755E-11  -2.56119736E4 -8.97330508E-1                   4
CH3O                    C   1H   3O   1     G     200.0    6000.0  1000.0      1
   4.75779238E0  7.44142474E-3 -2.69705176E-6 4.38090504E-10-2.63537098E-14    2
    3.7811194E2  -1.96680028E0   3.71180502E0 -2.80463306E-3  3.76550971E-5    3
 -4.73072089E-8  1.8658842E-11    1.2956976E3   6.57240864E0                   4
CH2OH                   C   1H   3O   1     G     200.0    6000.0  1000.0      1
    5.0931437E0   5.9476126E-3  -2.0649746E-6 3.23008173E-10-1.88125902E-14    2
   -4.0340964E3  -1.84691493E0   4.47834367E0  -1.3507031E-3   2.7848498E-5    3
  -3.6486906E-8  1.4790745E-11   -3.5007289E3     3.309135E0                   4
HOCHO                   C   1H   2O   2     G     200.0    6000.0  1000.0      1
    4.6138316E0   6.4496364E-3  -2.2908251E-6  3.6716047E-10 -2.1873675E-14    2
    -4.751485E4   8.4788383E-1    3.8983616E0  -3.5587795E-3   3.5520538E-5    3
  -4.3849959E-8  1.7107769E-11   -4.6770609E4    7.3495397E0                   4
OCHO                    C   1H   1O   2     G     200.0    6000.0  1000.0      1
   4.14394211E0  5.59738818E-3 -1.99794019E-6 3.16179193E-10-1.85614483E-14    2
  -1.72459887E4   5.07778617E0   4.68825921E0 -4.14871834E-3   2.5506601E-5    3
   -2.844739E-8 1.04422559E-11  -1.69867041E4    4.2842648E0                   4
CH2O                    C   1H   2O   1     G     200.0    6000.0  1000.0      1
   3.16952665E0   6.1932056E-3 -2.25056366E-6  3.6597566E-10-2.20149458E-14    2
  -1.45486831E4   6.04207898E0   4.79372312E0 -9.90833322E-3   3.7321999E-5    3
 -3.79285237E-8 1.31772641E-11  -1.43791953E4  6.02798058E-1                   4
HCO                     C   1H   1O   1     G     200.0    6000.0  1000.0      1
   3.92001542E0  2.52279324E-3 -6.71004164E-7 1.05615948E-10-7.43798261E-15    2
   3.65342928E3   3.58077056E0    4.2375461E0 -3.32075257E-3  1.40030264E-5    3
 -1.34239995E-8 4.37416208E-12   3.87241185E3   3.30834869E0                   4
HCOH                    C   1H   2O   1     G     300.0    5000.0  1398.0      1
   9.18749272E0  1.52011152E-3 -6.27603516E-7 1.09727989E-10-6.89655128E-15    2
   7.81364593E3  -2.73434214E1  -2.82157421E0  3.57331702E-2  -3.8086158E-5    3
  1.86205951E-8-3.45957838E-12   1.12956672E4   3.48487757E1                   4
C2H5O2                  C   2H   5O   2     G     200.0    3000.0  1000.0      1
   4.70243558E0  2.19598579E-2 -1.10333734E-5  2.67891041E-9-2.55189141E-13    2
  -5.42484554E3   3.53031116E0   5.41024375E0 -6.93942023E-4  6.35336439E-5    3
 -8.37841039E-8 3.35867996E-11  -4.81407036E3   4.37174436E0                   4
C2H6                    C   2H   6          G     200.0    6000.0  1000.0      1
   4.04666411E0  1.53538802E-2 -5.47039485E-6 8.77826544E-10-5.23167531E-14    2
  -1.24473499E4 -9.68698313E-1   4.29142572E0 -5.50154901E-3  5.99438458E-5    3
 -7.08466469E-8 2.68685836E-11  -1.15222056E4   2.66678994E0                   4
C2H5                    C   2H   5          G     300.0    3500.0   700.0      1
  -1.10489358E0  2.43511913E-2 -1.39613152E-5  3.89870297E-9 -4.1728512E-13    2
   1.35030749E4   3.00146907E1   4.99501831E0  -1.0505448E-2  6.07314834E-5    3
 -6.72372957E-8 2.49884287E-11   1.26490872E4   2.76182763E0                   4
CHOCHO                  C   2H   2O   2     G     300.0    5000.0  1386.0      1
   9.75438561E0  4.97645947E-3 -1.74410483E-6 2.75586994E-10-1.61969892E-14    2
  -2.95832896E4  -2.61878329E1    1.8810512E0  2.36386368E-2 -1.83443295E-5    3
  6.84842963E-9-9.92733674E-13   -2.6928019E4   1.59154793E1                   4
C2H3OOH                 C   2H   4O   2     G     300.0    5000.0  1397.0      1
   1.15749951E1  8.09909174E-3 -2.81808668E-6 4.42697954E-10-2.58998042E-14    2
  -8.84852664E3  -3.43859117E1   1.35644398E0  3.37002447E-2   -2.759885E-5    3
  1.14222854E-8-1.89488886E-12  -5.49996692E3   1.98354466E1                   4
CHCHO                   C   2H   2O   1     G    298.15    2000.0  1000.0      1
    4.9263291E0  9.71712147E-3  -5.5485598E-6  1.53068537E-9-1.64742462E-13    2
   2.89499494E4  5.27874677E-1   2.33256751E0  1.62952986E-2 -9.72052177E-6    3
 5.15124155E-10 1.03836514E-12   2.96585452E4   1.39904923E1                   4
C2H4                    C   2H   4          G     200.0    3000.0  1000.0      1
   1.60864693E0  1.50609034E-2 -7.03415503E-6  1.60473454E-9-1.45035207E-13    2
   5.03481778E3   1.26522651E1   4.24760731E0 -9.92694869E-3  6.13390131E-5    3
 -7.26431229E-8 2.80785458E-11   5.01597556E3   2.91763124E0                   4
C2H3                    C   2H   3          G     200.0    3000.0  1000.0      1
   2.94703852E0  1.03773732E-2 -4.78133396E-6  1.07695608E-9-9.62134934E-14    2
   3.43648997E4   8.16989635E0   3.14512897E0  2.28305573E-3   2.3792141E-5    3
 -3.37614846E-8 1.40649792E-11    3.4566848E4   8.68163141E0                   4
C2O                     C   2O   1          G     200.0    6000.0  1000.0      1
   5.42468378E0  1.85393945E-3 -5.17932956E-7  6.7764623E-11-3.53315237E-15    2
   4.37161379E4  -3.69608405E0   2.86278214E0  1.19701204E-2 -1.80851222E-5    3
   1.5277773E-8-5.20063163E-12   4.43125964E4   8.89759099E0                   4
C2H2                    C   2H   2          G     200.0    6000.0  1000.0      1
   4.65878489E0  4.88396667E-3 -1.60828888E-6 2.46974544E-10-1.38605959E-14    2
   2.57594042E4  -3.99838194E0  8.08679682E-1  2.33615762E-2 -3.55172234E-5    3
  2.80152958E-8-8.50075165E-12   2.64289808E4   1.39396761E1                   4
C2H                     C   2H   1          G     200.0    6000.0  1000.0      1
   3.66270248E0  3.82492252E-3   -1.366325E-6  2.1345504E-10-1.23216848E-14    2
    6.7168379E4   3.92205792E0   2.89867676E0  1.32988489E-2 -2.80733327E-5    3
  2.89484755E-8-1.07502351E-11    6.7061605E4   6.18547632E0                   4
H2CC                    C   2H   2          G     200.0    6000.0  1000.0      1
     4.278034E0   4.7562804E-3  -1.6301009E-6  2.5462806E-10 -1.4886379E-14    2
    4.8316688E4   6.4023701E-1    3.2815483E0   6.9764791E-3  -2.3855244E-6    3
  -1.2104432E-9  9.8189545E-13    4.8621794E4     5.920391E0                   4
C2H4O2H                 C   2H   5O   2     G     200.0    3000.0  1000.0      1
   6.78041359E0  1.83275444E-2 -8.91431995E-6  2.10717647E-9 -1.9640965E-13    2
   3.29131978E3  -4.72895313E0   7.21049238E0 -8.05223553E-4  5.64608626E-5    3
 -7.53070591E-8 3.05453325E-11    3.8411079E3  -3.13534586E0                   4
C2H4O1-2                C   2H   4O   1     G     200.0    6000.0  1000.0      1
    5.4887641E0    1.204619E-2  -4.3336931E-6  7.0028311E-10 -4.1949088E-14    2
   -9.1804251E3   -7.0799605E0    3.7590532E0   -9.441218E-3   8.0309721E-5    3
  -1.0080788E-7  4.0039921E-11   -7.5608143E3    7.8497475E0                   4
C2H3O1-2                C   2H   3O   1     G     200.0    6000.0  1000.0      1
   5.60158035E0  9.17613962E-3 -3.28028902E-6 5.27903888E-10-3.15362241E-14    2
   1.71446252E4  -5.47228512E0   3.58349017E0 -6.02275805E-3  6.32426867E-5    3
 -8.18540707E-8 3.30444505E-11   1.85681353E4   9.59725926E0                   4
C2H5OH                  C   2H   6O   1     G     300.0    5000.0  1402.0      1
   8.14483865E0  1.28314052E-2 -4.29052743E-6 6.55971721E-10-3.76506611E-14    2
  -3.24005526E4  -1.86241126E1  2.15805861E-1  2.95228396E-2 -1.68271048E-5    3
  4.49484797E-9-4.02451543E-13  -2.94851823E4   2.45725052E1                   4
C2H5O                   C   2H   5O   1     G     300.0    5000.0  1467.0      1
   8.19120635E0  1.10391986E-2 -3.75270536E-6 5.80275784E-10-3.35735146E-14    2
  -5.66847208E3  -1.90131344E1   2.90353584E0  1.77256708E-2 -2.69624757E-6    3
 -3.45830533E-9 1.25224784E-12   -3.2893029E3   1.13545591E1                   4
PC2H4OH                 C   2H   5O   1     G     200.0    6000.0  1000.0      1
   7.01348674E0  1.20204391E-2 -4.21992012E-6 6.70675981E-10-3.97135273E-14    2
  -6.16161779E3  -8.62052409E0   4.20954137E0  9.12964578E-3  2.47462263E-5    3
 -3.92945764E-8 1.66541312E-11  -4.91511371E3   8.30445413E0                   4
SC2H4OH                 C   2H   5O   1     G     300.0    5000.0  1385.0      1
   8.15007136E0  1.02549305E-2 -3.40137764E-6 5.17509965E-10-2.96128942E-14    2
  -1.05014386E4  -1.73134615E1   1.46281093E0  2.39193995E-2 -1.30667185E-5    3
  3.10615465E-9-1.85896007E-13  -8.00790323E3   1.92547092E1                   4
O2CH2CHO                C   2H   3O   3     G     300.0    5000.0  1393.0      1
   1.11807543E1  9.14479256E-3 -3.15089833E-6 4.91944238E-10 -2.8663918E-14    2
  -1.55790331E4   -2.8789274E1  -1.29465843E0  4.44936393E-2 -4.26577074E-5    3
   2.0739195E-8-3.96828771E-12  -1.18275628E4   3.60778797E1                   4
HO2CH2CO                C   2H   3O   3     G     300.0    5000.0  1386.0      1
   1.04146322E1  1.12680116E-2 -5.17494839E-6  1.00333285E-9-6.68165911E-14    2
  -1.40955672E4    -2.278944E1   2.22681686E0   3.5678138E-2 -3.26401909E-5    3
  1.47651988E-8 -2.6479438E-12  -1.18735095E4   1.91581197E1                   4
CH2CO2                  C   2H   2O   2     G     300.0    5000.0  1000.0      1
   7.65364625E0  8.11459788E-3 -3.27402215E-6  6.0472528E-10-4.19318185E-14    2
  -2.47039852E3  -1.29488037E1   1.58410663E0  2.55753337E-2 -1.92389918E-5    3
  4.43061572E-9 7.05951245E-13  -9.15619463E2   1.80375721E1                   4
CH3CHO                  C   2H   4O   1     G     200.0    6000.0  1000.0      1
    5.4041108E0   1.1723059E-2  -4.2263137E-6  6.8372451E-10 -4.0984863E-14    2
   -2.2593122E4   -3.4807917E0    4.7294595E0  -3.1932858E-3   4.7534921E-5    3
  -5.7458611E-8  2.1931112E-11   -2.1572878E4    4.1030159E0                   4
CH3CO                   C   2H   3O   1     G     200.0    6000.0  1000.0      1
    5.3137165E0   9.1737793E-3  -3.3220386E-6  5.3947456E-10 -3.2452368E-14    2
   -3.6450414E3   -1.6757558E0    4.0358705E0   8.7729487E-4    3.071001E-5    3
  -3.9247565E-8  1.5296869E-11   -2.6820738E3    7.8617682E0                   4
CH2CHO                  C   2H   3O   1     G     298.0    3000.0  1000.0      1
    3.6302633E0  1.41239404E-2 -7.16478146E-6  1.76263004E-9-1.70391996E-13    2
   4.29875072E2   6.20577997E0  9.86311004E-1  2.24920216E-2 -1.64812936E-5    3
  5.86617239E-9-6.81551147E-13   1.07163704E3   1.95196726E1                   4
C2H3OH                  C   2H   4O   1     G     300.0    5000.0  1410.0      1
   8.32598158E0  8.03387281E-3 -2.63928405E-6 3.98410726E-10-2.26551155E-14    2
  -1.83221436E4  -2.02080305E1  -1.2797226E-1  3.38506073E-2 -3.30644935E-5    3
  1.64858739E-8-3.19935455E-12  -1.59914544E4   2.30438601E1                   4
CH2CO                   C   2H   2O   1     G     300.0    5000.0  1387.0      1
    6.3646703E0  5.45786699E-3 -1.84268576E-6 2.83411786E-10-1.63298616E-14    2
  -8.24720912E3  -9.42955479E0   4.99492822E0  7.27504908E-3 -2.16744674E-6    3
-9.25637041E-11  1.1264695E-13  -7.59099666E3  -1.51259007E0                   4
HCCO                    C   2H   1O   1     G     200.0    6000.0  1000.0      1
   5.91479333E0   3.7140873E-3  -1.3013701E-6 2.06473345E-10-1.21476759E-14    2
   1.93596301E4  -5.50567269E0   1.87607969E0  2.21205418E-2 -3.58869325E-5    3
  3.05402541E-8-1.01281069E-11    2.0163384E4    1.3696829E1                   4
HCCOH                   C   2H   2O   1     G     200.0    6000.0  1000.0      1
   6.37509678E0  5.49429011E-3 -1.88136576E-6 2.93803536E-10-1.71771901E-14    2
   8.93277676E3  -8.24498007E0   2.05541154E0  2.52003372E-2 -3.80821654E-5    3
  3.09890632E-8-9.89799902E-12   9.76872113E3   1.22271534E1                   4
CH3CCO                  C   3H   3O   1     G     100.0    5000.0  450.61      1
   4.07733162E0  1.56711833E-2 -6.97158858E-6  1.31787764E-9-9.17660519E-14    2
   1.95006394E4   7.83646777E0   3.34387132E0  1.74325291E-2  2.97569379E-6    3
 -3.67906168E-8 3.40290463E-11   1.96149582E4   1.13253443E1                   4
CH3OCO                  C   2H   3O   2     G     298.0    3000.0  1000.0      1
   3.36304128E0  1.87670995E-2 -1.03048118E-5  2.67955225E-9 -2.6952476E-13    2
  -2.08317053E4   1.09017923E1   4.20427121E0  8.77414983E-3  1.52020481E-5    3
  -2.1722388E-8 7.77727542E-12   -2.0687622E4   8.45258172E0                   4
NC3H7O2                 C   3H   7O   2     G     200.0    3000.0  1000.0      1
   4.91998559E0  3.15132726E-2 -1.58821725E-5  3.86554476E-9-3.68943114E-13    2
  -8.25948108E3   4.98449512E0   5.47042383E0  8.03725792E-3  6.23369337E-5    3
 -8.69404455E-8 3.51435174E-11   -7.5459419E3   6.93921239E0                   4
C3H6OOH1-2              C   3H   7O   2     G     200.0    3000.0  1000.0      1
    6.5069906E0  2.85213018E-2 -1.41417909E-5  3.39938293E-9-3.21373645E-13    2
  -1.45012873E3 -1.87717582E-1   6.34979532E0  8.11708872E-3   5.9405573E-5    3
 -8.44703358E-8 3.45623896E-11  -6.15937814E2   5.09764555E0                   4
C3H6OOH1-3              C   3H   7O   2     G     200.0    3000.0  1000.0      1
    7.2312653E0   2.7742981E-2 -1.37595857E-5  3.30768532E-9 -3.1271468E-13    2
  -4.43242263E2  -5.41152147E0   5.50078943E0  1.50499925E-2  4.54145213E-5    3
 -7.25615652E-8 3.08058933E-11   6.52616591E2    7.1582156E0                   4
C3H6OOH1-3O2            C   3H   7O   4     G     200.0    3000.0  1000.0      1
    1.2607889E1  2.93092235E-2  -1.5084075E-5  3.73118698E-9-3.60788937E-13    2
  -1.96011992E4     -3.08301E1   7.24781475E0  3.28928441E-2  1.30495909E-5    3
 -4.36381462E-8  2.0651332E-11  -1.77709148E4  -9.1772504E-1                   4
C3KET13                 C   3H   6O   3     G     200.0    3000.0  1000.0      1
   8.58106638E0  2.73143185E-2 -1.39521051E-5  3.42955156E-9-3.29871443E-13    2
  -3.47726042E4  -1.11674324E1   7.59820874E0  2.30624183E-2   6.9084067E-6    3
 -2.23357702E-8 9.80969635E-12  -3.42038835E4  -4.50289938E0                   4
C3H6O1-2                C   3H   6O   1     G     200.0    6000.0  1000.0      1
   8.01491079E0  1.73919953E-2 -6.26027968E-6  1.01188256E-9-6.06239111E-14    2
  -1.51980838E4  -1.88279964E1   3.42806676E0  6.25176642E-3  6.13196311E-5    3
 -8.60387185E-8 3.51371393E-11  -1.28446646E4   1.04244994E1                   4
C3H6O1-3                C   3H   6O   1     G     200.0    6000.0  1000.0      1
   6.80716906E0  1.88824545E-2 -6.79082475E-6  1.09713919E-9-6.57154952E-14    2
  -1.36547629E4  -1.35382154E1   5.15283752E0 -1.86401716E-2  1.29980652E-4    3
 -1.58629974E-7 6.20668783E-11  -1.13243512E4   4.73561224E0                   4
OCHCH2CH2O              C   3H   5O   2     G     298.0    6000.0  1000.0      1
   1.08162478E1  1.42673665E-2 -5.07333766E-6 8.11888154E-10-4.82713892E-14    2
  -1.75002033E4  -2.65683503E1 -5.00838068E-1  5.19868081E-2 -6.76895492E-5    3
  5.81287856E-8-2.11513136E-11  -1.42793836E4   3.13661013E1                   4
C3H8                    C   3H   8          G     200.0    3000.0  1000.0      1
   1.40021346E0  3.18420793E-2  -1.5679464E-5  3.74038679E-9-3.50970704E-13    2
  -1.45995041E4   1.53772904E1   4.40544497E0  1.49882943E-3  6.81726683E-5    3
 -8.73518733E-8 3.42271755E-11  -1.45263856E4   4.75462035E0                   4
IC3H7                   C   3H   7          G     200.0    3000.0  1000.0      1
   1.28792104E0  2.88132087E-2 -1.42628492E-5  3.41663382E-9-3.21641287E-13    2
   8.77362364E3    1.9027698E1   6.26934547E0  -1.2046104E-2  9.04149102E-5    3
  -1.0586145E-7 4.01565711E-11    8.5531475E3 -5.55855157E-1                   4
NC3H7                   C   3H   7          G     200.0    3000.0  1000.0      1
   2.48159455E0  2.69835428E-2 -1.31599688E-5  3.11464891E-9-2.90368978E-13    2
   1.01221292E4   1.22920896E1   4.17115101E0  3.51564655E-3  5.75322599E-5    3
 -7.69319478E-8 3.08423388E-11   1.03875523E4   7.64185086E0                   4
CH3CHCHO                C   3H   5O   1     G     300.0    5000.0  1424.0      1
   1.06781476E1  1.12805711E-2 -3.89010759E-6 6.07617268E-10-3.54120848E-14    2
  -7.73234209E3  -3.24971238E1   1.47166733E0  2.69251618E-2 -1.00248013E-5    3
 -1.13421435E-9 1.03416658E-12  -4.04142023E3   1.88722472E1                   4
CH3CHCO                 C   3H   4O   1     G     300.0    5000.0  1400.0      1
   1.00219123E1    9.569663E-3 -3.26221644E-6 5.05231706E-10-2.92593257E-14    2
  -1.42482738E4  -2.77829973E1   1.48380119E0  3.22203013E-2 -2.70250033E-5    3
  1.20499164E-8-2.18365931E-12   -1.1527654E4   1.71552068E1                   4
C3H5O                   C   3H   5O   1     G     300.0    5000.0  1402.0      1
   1.02638186E1  1.17609932E-2 -3.89837957E-6 5.92650815E-10-3.38867417E-14    2
   7.25938472E3  -2.75108651E1  8.24068673E-1  3.46749909E-2 -2.51786795E-5    3
  9.56781953E-9-1.48085302E-12   1.04203725E4    2.2828307E1                   4
CH2CHOCH2               C   3H   5O   1     G     298.0    3000.0  1000.0      1
   5.97771354E0  2.02657041E-2 -1.01668826E-5  2.48262015E-9-2.38848507E-13    2
   8.26182922E3  -3.59465019E0  8.65182879E-1  3.69123607E-2 -2.91776933E-5    3
  1.10126628E-8-1.29220645E-12   9.46612939E3   2.20002011E1                   4
AC3H5OOH                C   3H   6O   2     G     298.0    6000.0  1000.0      1
   1.20838649E1  1.47946591E-2 -5.13212591E-6 8.07504999E-10-4.74394983E-14    2
  -1.02184463E4  -3.36434791E1   3.18124993E0  4.35233041E-2 -5.16277353E-5    3
  4.32011427E-8-1.57714983E-11  -7.63521503E3   1.21725683E1                   4
C3H6                    C   3H   6          G     200.0    3000.0  1000.0      1
   1.92108263E0  2.43339459E-2 -1.16770827E-5   2.7294451E-9-2.52017823E-13    2
   6.57712123E2   1.38966351E1   4.31009158E0 -1.07031844E-3  5.93972302E-5    3
 -7.47111922E-8 2.91295619E-11   7.63241094E2   5.72920478E0                   4
C3H5-A                  C   3H   5          G     200.0    3000.0  1000.0      1
   3.84791212E0  1.92587171E-2 -9.13273431E-6  2.11591054E-9-1.94087489E-13    2
   1.77129152E4   2.99184164E0   1.78802281E0  1.47355886E-2  2.49636779E-5    3
 -4.61392059E-8 2.05476345E-11   1.85843327E4   1.55955836E1                   4
C3H5-S                  C   3H   5          G     200.0    3000.0  1000.0      1
   2.96456222E0  2.00542186E-2 -9.69055932E-6  2.28759935E-9-2.13799962E-13    2
   3.02834725E4    9.8333426E0   3.82115034E0  5.68402338E-3  3.50202069E-5    3
  -4.8904445E-8 1.97810852E-11   3.05074273E4   7.99634709E0                   4
C3H5-T                  C   3H   5          G     200.0    3000.0  1000.0      1
   2.64305773E0  2.04953214E-2 -9.90039262E-6  2.32606764E-9-2.15631121E-13    2
   2.85305626E4   1.18330025E1   4.87989018E0 -1.62832401E-3  5.08381392E-5    3
 -6.33941027E-8 2.46528204E-11   2.85657279E4   3.82550151E0                   4
CC3H5                   C   3H   5          G     298.0    3000.0  1000.0      1
    2.9997496E0  2.13475726E-2  -1.0699075E-5  2.60932417E-9-2.50699404E-13    2
   3.31868952E4   7.36829306E0  -2.66197201E0  4.09354947E-2 -3.51846762E-5    3
  1.54618244E-8-2.54379883E-12   3.44620177E4   3.54220671E1                   4
SC3H4OH                 C   3H   5O   1     G     300.0    5000.0  1409.0      1
   9.47410666E0  1.30017461E-2 -5.98809406E-6  1.20693652E-9-8.36051867E-14    2
  -7.27956379E3   -2.4656701E1   2.44954369E0  3.28038175E-2 -2.74206705E-5    3
  1.16743989E-8    -2.0137E-12  -5.22438373E3   1.17912854E1                   4
C3H3O                   C   3H   3O   1     G     100.0    5000.0 1149.86      1
   6.82982476E0  1.21550955E-2 -5.01834477E-6 9.27996889E-10-6.42469482E-14    2
   1.97626136E4  -7.94216328E0    2.9430262E0  1.99368612E-2 -7.68290364E-6    3
 -1.86785397E-9 1.48736942E-12   2.10358789E4   1.30019586E1                   4
C2HCHO                  C   3H   2O   1     G     300.0    5000.0  2012.0      1
   7.99952054E0  7.07825497E-3 -2.63086819E-6 4.33073185E-10-2.62003284E-14    2
   8.71863156E3  -1.57226237E1   4.20776611E0  1.34382727E-2 -5.15442099E-6    3
-2.24570818E-11 2.74111284E-13   1.02117375E4   5.43871873E0                   4
CH2CCH2OOH              C   3H   5O   2     G     100.0    5000.0  797.78      1
   5.63002145E0  2.49469787E-2 -1.17522882E-5  2.27967141E-9-1.61088289E-13    2
   1.90445436E4   2.90129761E0   2.24534237E0  4.19178324E-2  -4.3661873E-5    3
  2.89455623E-8 -8.5175477E-12   1.95845778E4   1.84656699E1                   4
CH2CHCH2OO              C   3H   5O   2     G     100.0    5000.0 1155.35      1
   5.58060891E0  2.31419381E-2 -1.00897341E-5   1.8929106E-9-1.31328362E-13    2
   8.55393412E3   2.61219293E0   2.56675611E0  3.35761853E-2 -2.36363706E-5    3
  9.70953623E-9-1.82269755E-12   9.25035685E3   1.75875518E1                   4
C3H4-P                  C   3H   4          G     200.0    6000.0  1000.0      1
      6.02524E0   1.1336542E-2  -4.0223391E-6  6.4376063E-10 -3.8299635E-14    2
   1.96286897E4  -8.59600927E0   1.88762824E0  2.25076683E-2 -1.71221335E-5    3
  9.88041746E-9-3.20867665E-12   2.08722476E4   1.30780797E1                   4
C3H4-A                  C   3H   4          G     200.0    3000.0  1000.0      1
   3.64971826E0  1.64691409E-2 -7.87384895E-6   1.8349251E-9-1.69011475E-13    2
    2.0877603E4   3.83085451E0   2.69751251E0  1.06292969E-2  2.19212936E-5    3
 -3.79372292E-8   1.660005E-11   2.14072429E4   1.04158509E1                   4
C3H3                    C   3H   3          G     200.0    6000.0  1000.0      1