ELEMENTS
C H N O AR 
HE 
END
SPECIES
AR N2 HE H2 H 
O2 O H2O OH OHV 
H2O2 HO2 HOCO CO CO2 
CH3O2H CH3O2 CH2O2H CH4 CH3 
CH2 CH2(S) C CH CHV 
CH3OH CH3O CH2OH HOCHO OCHO 
CH2O HCO HCOH C2H5O2 C2H6 
C2H5 CHOCHO C2H3OOH CHCHO C2H4 
C2H3 C2O C2H2 C2H H2CC 
C2H4O2H C2H4O1-2 C2H3O1-2 C2H5OH C2H5O 
PC2H4OH SC2H4OH O2CH2CHO HO2CH2CO CH2CO2 
CH3CHO CH3CO CH2CHO C2H3OH CH2CO 
HCCO HCCOH CH3CCO CH3OCO NC3H7O2 NC3H7CO
C3H6OOH1-2 C3H6OOH1-3 C3H6OOH1-3O2 C3KET13 C3H6O1-2 
C3H6O1-3 OCHCH2CH2O C3H8 IC3H7 NC3H7 
CH3CHCHO CH3CHCO C3H5O CH2CHOCH2 AC3H5OOH 
C3H6 C3H5-A C3H5-S C3H5-T CC3H5 
SC3H4OH C3H3O C2HCHO CH2CCH2OOH CH2CHCH2OO 
C3H4-P C3H4-A C3H3 C3H2 C3H2C 
CH2CCH2OH C3H6OH2-1 IC3H5OH CH3COCH2O2 CH3COCH2O 
C3KET21 CH3COCH2 C2H3CHO C2H3CO C2H5CHO 
C2H5CO CH2CH2CHO CH2CHCHOH C4H8O1-2 C4H71-O 
C4H5-2C2H CH2CCHCH2CHCH2 SC3H5CHO SC3H5CO C4H8-1 
C4H71-1 C4H71-3 C4H71-4 C4H6-1 C4H5-3 
C3H4O1-2 C4H5-4 C2HCOCH3 C4H64,2-1OH CC5H9OH-A 
CC5H8OHA-B CC5H8OHA-BO C4H5OH-13 NC4H9OH CYHEXDN13 
CYHEXDN14 C6H8 CYHEXEN-4J CYPENTN-4MJ CYPENTN-4M4J 
CYPENTN-4M3J CH2CHCHCHO C4H4O C4H6 C4H5-I 
C4H5-N C4H5-2 C4H4 C4H3-I C4H3-N 
C4H2 C4H612 C4H6-2 H2C4O C2H5COCH2 
CH2CH2COCH3 CH3CHCOCH3 C2H3COCH3 C2H5CHCO C8H131-5,3,TA 
C8H131-5,3,TAO C5H5CH3-1 C5H5CH3-2 C5H5CH2-1 C5H5CH2-2 
CYC6H7 C6H7-2 C5H4CH3 C5H5CH2 C2H4OCHO 
C5H81-2 C5H81-3 C5H82-3 C5H8-2 C5H7-13-3 
CVCCJCVC CVCCVCCVO C5H91-1 C5H91-3 CC5H9-A 
AC5H9-A2 B13DE2M AC3H5CHO NC53ONE-1 NC6H14 
C6H13-2 C6H111O2-5 C6H111O2-6 C6H111OO2-5 C6H11O1-2O-5 
C6H101OOH5-3 C6H101OOH6-4 C6H101OOH6-3 C6H101OOH5-6 C6H101OOH5-4 
C6H101OOH6-5 C6H101O4-6 C6H101O5-6 C6H102-4 C6H10D14 
C6H101-5 C6H101-3 P13DE1J CVCCJCVCC CVCCVCCOJC 
CVCCOJCVCC C6H9-A C6H9-13-2 C6H9-13-6 I3C7D1 
I3C7D1-3 I3C7D1-3O C6H12-1 C6H12-2 C6H12-3 
C6H111-3 C6H111-4 C6H111-5 C6H111-6 C6H112-4 
C6H112-5 C6H112-6 C6H113-1 C6H11OH2-2 C6H11OH3-2 
CHXRAD CYCHEXENE CYHX1N3OJ CYHX1N3J HX2N1AL6J 
I3C6D3 I3C6OOH4-3 I3C6O3-4 C5D2Y1-1R C6D2Y1-1R 
C7H14-2 C7H131-3 C7H132-4 C7H132-5 L-C6H4 
C-C6H4 C6H3 C6H2 C6H5OO C6H5OOH 
A1-C6H6 FULVENE C6H5 OC6H4OH O-C6H4O2 
P-C6H4O2 P-C6H3O2 C6H5OH C6H5O C6H4OH 
CVCCVCCOH C5H5O C5H4OH C5H4O C5H3O 
CVCCVCCJVO CJVCCVO OC5H7O C5H6 C5H5 
C5H6-L C#CCVCCJ C5H7 C6H5CH3 C6H5CH2 
C7H6 C7H5 C6H5CHO C6H5CO HOC6H4CH3 
HOC6H4CH2 OC6H4CH3 C6H5CH2OH C6H5CH2O C6H5C2H 
IND C10H10 C5H5CH3 C9H6O ME2J 
ME2DO MP2D2J MP2D3J MP2DMJ MP2D 
BAOJ MB2D MB2J MBMJ MB3J 
MB3O MB4J MB-C5H10O2 MP3J MBMDO 
MB4DO MB2OO MB3OO MB4OO MBMOO 
MB2OOH4J MB3OOH2J MB3OOHMJ MB4OOH3J MB4OOH2J 
MBMOOH3J MBMOOH2J MBMOOH4J MB3D MBCY3O2 
MBCY4O3 MBCY4O2 MBCY2OM NC3H7COOO NC3H7COOOH 
 CHOCO2J MBMOOH3O2 MBMOOH4O2 MB2OOH4O2 
MB3OOHMO2 MB4OOH2O2 MB4OOHMO2 MBKET42 MBKET3M 
MBKET24 MBKETM4 MBKET4M MB3DMOOH MP2DO3J 
BAOJ3DO MPMDO3J BAOJ4DO MB2OOH3J MB3OOH4J 
MB3DO CHOOCO MBMJDO MB2DMJ MB2D4J 
BAOJ2D CH2CHCHCO MP2T IC5D1T3-1J HOCH2O 
C2H3OO C2H2OH CH3COCH CH3COCHO CH2CHOCHO 
CH2CHOCO AC4H7OOH CC3H6 C3H3O2H H2CCC(S) 
C3H2(S) CCYCCJO C3H5OH CH3COCH3 CH2OHCHCHO 
CH2OHCH(OO)CHO CH2OHCH(OOH)CO CH3CH(OO)CHO QCH3CH(OOH)CO CY(CCCOO) 
CY(CCO)CO SC4H9O2 C4H8O2-3 C4H10 PC4H9 
SC4H9 IC3H7CHO SC4H7OH-I TC3H6CHO IC3H5CHO 
IC3H6CO IC3H5CO IC3H4CHO-A CHCCH2CH2CHCH2 IC4H8 
IC4H7 C4H71-4O2 C4H71-2 C2H5CCO C4H8-2 
C4H71-1OH C4H63,1-2OH C4H64,1-1OH CH2CYC3H4OH C4H63,1-1OH 
HOCH2CHO FURAN C4H5O-3 C2H3CHOHCH2 CH2CCOCH3 
C3H7CHO C3H6CHO-1 C3H6CHO-2 C5H8D14 CYC3H5CHCH3 
CYC3H5CHCH2 C5H7-13-2 C5H10-1 C5H92-5 AC5H9-C 
AC5H9-D B13DE2MJ C6H12O2-3 C6H13-1 C6H13-3 
C6H9D14-6OOH C6H101O4-5 C6H101OOH6-5O2 C6H101OOH6-4O2 NC6D1KET65 
C6H9-13-3 C6H111-2 C6H113-3 CHX I3C6D3-1 
I3C6D3-2 I3C6OOH3-4 XC6D1-1A I3C6D13 C7H14-3 
C7H133-6 O-OC6H5OJ C5H5OH CJVCCVCCVO BZCOOH 
C6H5CH2OO C6H4CH3 C6H5C2H3 C6H5CCH2 C6H5CHCH 
C9H7 MB2O MB4OOHMJ MBCY3OM MMCYMOO1 
 MB2D2J MB2D3J CJHCHCHCO BUTA123TRIENE 
IC5D1T3 IC5D1T3-1V IC5D1T3-4J HO2CHO O2CHO 
C2H5O2H CH2COOH CH3CO3H CH3CO3 CH3CO2 
CH3OCHO SC3H5OO O2CH2CH2CHO QHO2CH2CH2CO CCYCCO-T1 
C4H61KET43 C4H61KET43O HOCH2CO C6H9-AOOH C14H12O 
C14H13 C14H12 C14H11 MBMO MB4O 
MB3OOH MB4OOH C2H5COCO COCO MB2D4OJ 
SC3H3CO MB2,3DMJ  MP2J MB2D4OOJ 
MB2,3D MB2D4OOHMJ MB2D4OOHMO2 MB2DKET4M BAOJ2D4DO 
MB2DMOOJ MB2D4OOH3J CH3OCH3 C2H3COOH AC5H10OOH-B 
AC5H10 IC6D1 IC6D1-1A C6H5C2H5 PC3H4OH-2 
C3H6OH1-1 NC3H7O C3H5CHOQ2-1 CH3CYC2H2OCHO 
CH3CHOOHCHCO OVCCVCCJVO IC3H5COCH3 AC3H4COCH3 C5H82OOH1-4 
C5H82KET45 CH3COOH C6H13O2-2 C6H12O3-4 C6H11OJ3 
OCHCHCHCJO C6H101OOH5-3O2 NC6D1KET53 SC2H2OH CH3CCHO 
SC3H5OH C2H3CHOHOJ SC4H7OH-IP SC4H7O-I IC3H7CO 
IC4H7-I1 CH3CHCCO C4H72-2 CH2COHCHO HOCHCHO 
OVCCVCVO C5H8-1 AC3H5CO C2H3COCH2 C7H133-5 
OC6H4CH2 C6H5CHOH NAPHO MB2OOHMJ MP2D3OH 
MP2D3OHMJ OHCHCHCJO OCJCHCO MP2D3OJ MB2M3J 
MB2DMOOH4J MB2DMOOH4O2 MB2D4OOH2J MB2D4OOH2O2 MB2DKET42 
C2 CH3CHOHOJ PC3H4OH-1 CH3C(OH)CH C4H8OOH2-3 
C4H7O2-1 CH3COHCO C4H51,3OH2 C5H7-14-1 C5H92-3 
NC6D1KET65O MB3M2J MB3M3J MB2DCY4O2 C5H92-2 
CC5H9-B CH3CHOCHCO C6H111O2-4 C6H111OO2-4 MB2D4JMDO 
C5H7O2MDO C4H6O25 IC4H7-I1OO C5H92-5O2 C5H82O4-5 
IC6D1-5 IC6D14 HOC6H4CHO HOC6H4CO HOC6H4CH2OO 
ME2DOMJ MEMDO2J MB4JDO MECY2OM MMMOOH1J C2H3CO2
MBCY4OM HCOCO MEMOOH2J C2H4CHO MPMDO2D MPMJDO2D
MP2D3JMDO MB2DKETM4 MB2DCY4OM MB3D3J
MBOJ3OOH MBOH3OOJ MBOH-3J C3KET12 C5H7O3-B MB1D3OOH
C3H4O3 MB3J2O C5H7O3-A MB3D1OOH MB2J4O 
MBOH-2J MBOH2OOJ C4H4O13
MBOH2OOJ MBOJ2OOH C5H10-3OH2 MC4H7AO2 AC3H6O2 MC3H6-OH MP1J
!C4H4O13 C5H7O3-B C3H4O3 MB2D1O CH2CCO MB2OOH3O2  MB2KET3  C3H3O3 MP3DO2D ME2JDO
! C5H7O2 removed
END

REACTIONS 
!\Author: AK !\Ref: TSANG AND HAMPSON, J. PHYS. CHEM. REF. DATA, 15 !\Comment: 
H2+M=2H+M    4.577E19 -1.4 1.044E5
    HE/0.83/
    CO/1.9/
    CH4/2.0/
    H2/2.5/
    C2H6/3.0/
    CO2/3.8/
    H2O/12.0/
    O2/0.0/
!\Author: SP !\Ref: BAULCH, D. L.; BOWMAN, C. T.; COBOS, J PHYS CHEM REF DATA 2005, 34, 757-1397. !\Comment: 
O+H2=OH+H    3.8E12 0.0 7.948E3
    DUP
!\Author: SP !\Ref: BAULCH, D. L.; BOWMAN, C. T.; COBOS, J PHYS CHEM REF DATA 2005, 34, 757-1397. !\Comment: 
O+H2=OH+H    8.8E14 0.0 1.9175E4
    DUP
!\Author: UB !\Ref: J.V.MICHAEL SUTHERLAND, J.PHYS.CHEM. 92(1988) 3853 !\Comment: 
H2+OH=H+H2O    2.2E8 1.51 3.43E3
!\Author:  !\Ref:  !\Comment: 
2H+O2=H2+O2    8.8E22 -1.835 8.0E2
!\Author:  !\Ref:  !\Comment: 
2H+O2=2OH    4.0E22 -1.835 8.0E2
!\Author:  !\Ref:  !\Comment: 
H+O2+O=OH+O2    7.35E22 -1.835 8.0E2
!\Author:  !\Ref:  !\Comment: 
H+O2+OH=H2O+O2    2.56E22 -1.835 8.0E2
!\Author: AK !\Ref: TSANG AND HAMPSON, J. PHYS. CHEM. REF. DATA, 15 !\Comment: 
2O+M=O2+M    6.165E15 -0.5 0.0E0
    HE/0.83/
    AR/0.83/
    CO/1.9/
    CH4/2.0/
    H2/2.5/
    C2H6/3.0/
    CO2/3.8/
    H2O/12.0/
!\Author: AK !\Ref: HONG ET AL. PROC. OF THE COMB. INST. 33(2011) 309?16 !\Comment: 2 PARAMETER FIT
O2+H=O+OH    1.04E14 0.0 1.5286E4
!\Author: ABS_TEST SP !\Ref: SELLEVAG, S. R.;J. PHYS. CHEM. A 2008, 112, 50855095 ! !\Comment: 
H+OH(+M)=H2O(+M)    2.5E13 0.234 -1.14E2
    AR/0.4/
    HE/0.57/
    O2/1.0/
    N2/1.0/
    H2/1.5/
    H2O/13.0/
    LOW/4.53E21 -1.81E0 4.92E2/
    TROE/7.3E-1 1.0E-30 1.0E30 1.0E30/
!\Author:  !\Ref: G. ALTINAY, J. PHYS. CHEM. A, 118(2014), PP. 38-54 !\Comment: 
2OH=H2O+O    2.88E6 1.79 -1.75E3
!\Author: AK !\Ref: TSANG AND HAMPSON, J. PHYS. CHEM. REF. DATA, 15 !\Comment: 
O+H+M=OH+M    4.714E18 -1.0 0.0E0
    AR/0.75/
    HE/0.75/
    CO/1.5/
    CH4/2.0/
    CO2/2.0/
    H2/2.5/
    C2H6/3.0/
    H2O/12.0/
    O2/0.0/
!\Author: ABS !\Ref: HALL AND PETERSEN IJCK 2006 !\Comment: 
H+O+M=OHV+M    4.43E14 0.0 1.0E4
    AR/0.4/
    O2/0.8/
    CO2/2.0/
    H2/2.0/
    CH4/2.0/
    H2O/12.0/
!\Author: ABS !\Ref: HALL AND PETERSEN IJCK 2006 !\Comment: 
OHV+H2O=OH+H2O    5.92E12 0.5 -8.6E2
!\Author: ABS !\Ref: HALL AND PETERSEN IJCK 2006 !\Comment: 
OHV+H2=OH+H2    2.95E12 0.5 -4.44E2
!\Author: ABS !\Ref:  !\Comment: 
OHV+N2=OH+N2    2.1E12 0.5 -4.82E2
!\Author: ABS !\Ref: HALL AND PETERSEN IJCK 2006 !\Comment: 
OHV+OH=2OH    1.5E12 0.5 0.0E0
!\Author: ABS !\Ref: HALL AND PETERSEN IJCK 2006 !\Comment: 
OHV+H=OH+H    1.5E12 0.5 0.0E0
!\Author: ABS !\Ref: HALL AND PETERSEN IJCK 2006 !\Comment: 
OHV+AR=OH+AR    2.17E10 0.5 2.06E3
!\Author: ABS !\Ref: HALL AND PETERSEN IJCK 2006 !\Comment: 
OHV=OH    1.4E6 0.0 0.0E0
!\Author: ABS !\Ref: HALL AND PETERSEN IJCK 2006 !\Comment: 
OHV+O2=OH+O2    2.1E12 0.5 -4.82E2
!\Author: ABS !\Ref: HALL AND PETERSEN IJCK 2006 !\Comment: 
OHV+CO2=OH+CO2    2.75E12 0.5 -9.68E2
!\Author: ABS !\Ref: HALL AND PETERSEN IJCK 2006 !\Comment: 
OHV+CO=OH+CO    3.23E12 0.5 -7.87E2
!\Author: ABS !\Ref: HALL AND PETERSEN IJCK 2006 !\Comment: 
OHV+CH4=OH+CH4    3.36E12 0.5 -6.35E2
!\Author: ABS !\Ref: HALL AND PETERSEN IJCK 2006 !\Comment: 
OHV+O=OH+O    1.5E12 0.5 0.0E0
!\Author: UB !\Ref: TROE, COMBUST. FLAME, 158 !\Comment: RATE CONSTANT IS FOR N2,
H2O2(+M)=2OH(+M)    2.0E12 0.9 4.8749E4
    HE/0.88/
    O2/1.5/
    CO2/1.86/
    N2/1.5/
    CO/2.4/
    H2/2.0/
    H2O/9.0/
    H2O2/9.9/
    LOW/2.3530181E24 -2.2929358E0 4.8743405E4/
    TROE/4.3E-1 1.0E-30 1.0E30/
!\Author: AK !\Ref: TSANG AND HAMPSON, J. PHYS. CHEM. REF. DATA, 15 !\Comment: 
H2O2+H=H2O+OH    2.41E13 0.0 3.97E3
!\Author:  !\Ref:  !\Comment: Decrease by 25% PW
H2O2+H=HO2+H2    1.65E10 1.0 6.0E3
!\Author: AK !\Ref: TSANG AND HAMPSON, J. PHYS. CHEM. REF. DATA, 15 !\Comment: 
H2O2+O=OH+HO2    9.55E6 2.0 3.97E3
!\Author: AK !\Ref: HONG ET AL. J. PHYS. CHEM. A 114(2010) 5718-5727 !\Comment: 
H2O2+OH=H2O+HO2    1.74E12 0.0 3.18E2
    DUP
!\Author: AK !\Ref: HONG ET AL. J. PHYS. CHEM. A 114(2010) 5718-5727 !\Comment: 
H2O2+OH=H2O+HO2    7.59E13 0.0 7.269E3
    DUP
!\Author:  !\Ref:  !\Comment: 
HO2+H=H2+O2    2.8E6 2.09 -1.451E3
!\Author: AK !\Ref: MUELLER ET AL., INT. J. CHEM. KINET. 31(10)(1999) 705724. !\Comment: 
HO2+H=2OH    7.079E13 0.0 2.95E2
!\Author: AK !\Ref: BAULCH ET AL., J. PHYS. CHEM. REF DATA, 21 !\Comment: 
HO2+O=OH+O2    3.25E13 0.0 0.0E0
!\Author: UB !\Ref: M.P. BURKE, S.J. KLIPPENSTEIN, L.B. HARDING, PROC. COMBUST. INST. 34(2013) 547-555 !\Comment: 
OH+HO2=H2O+O2    1.93E20 -2.49 5.8424E2
    DUP
!\Author: UB !\Ref: M.P. BURKE, S.J. KLIPPENSTEIN, L.B. HARDING, PROC. COMBUST. INST. 34(2013) 547-555 !\Comment: 
OH+HO2=H2O+O2    1.21E9 1.24 -1.30758E3
    DUP
!\Author: SP !\Ref: S.J. KLIPPENSTEIN, M.P. BURKE, K.P. SOMERS, 11th U.S. NAT.COMB.MEETING (2019) !\Comment: 
2HO2=H2O2+O2    1.93E-2 4.12 -4.96E3
!\Author: SP !\Ref: S.J. KLIPPENSTEIN, M.P. BURKE, K.P. SOMERS, 11th U.S. NAT.COMB.MEETING (2019) !\Comment: 
2HO2=2OH+O2    6.41E17 -1.54 8.54E3
!\Author: SP !\Ref: TROE _ 2000 / PCCP FERNANDES 2008
!\Author: SP !\Ref:Shao et al. Proc. Comb. Inst. 37,(2019):145-152.
!\Author: SP !\Ref: Lu, Z. 2020. Hydrogen oxidation near the second explosion limit in a flow reactor
!H+O2(+M)=HO2(+M)    4.66E12 0.44 0.0E0
!    HE / +0.5700 /
!	N2/1.0/
!    AR/0.65/
!    O2/1.0/
!    H2/2.0/
!    CH4/2.0/
!    CO2/3.25/
!    H2O/17.6/
!    CO/4.0/
!    LOWMX/1.225E19 -1.2E0 0.0E0/
!    TROEMX/5.0E-1 1.0E0 1.0E10 1.0E30/
!    LOWSP/N2 4.5E20 -1.73E0 0.0E0/
!   TROESP/N2 5.0E-1 1.0E0 1.0E10 1.0E30/
!\Author: ?? !\Ref: MEULLER 99 * 0.76 !\Comment: 
H+O2(+M)=HO2(+M)      +4.66000000E+012 +4.40000000E-001 +0.00000000E+000 !\Author: SP !\Ref: TROE _ 2000 / PCCP FERNANDES 2008
LOW /          +1.22500000E+019 -1.20000000E+000 +0.00000000E+000/!\Author: SP !\Ref:Shao et al. Proc. Comb. Inst. 37,(2019):145-152.
TROE /           +5.00E-01	1.00E+00	1.00E+10	1.00E+30 / 
HE / +0.5700 / AR / +0.65 / N2 / +0.0 / O2 / 1.0 / H2 / +2.00 / CH4 / +2.0000 / CO2 / +3.2500 / H2O / +17.6000 / CO / 4.0/
!!CO / 4.0 / CHANGED TO IMPROVE SYNGAS IDT, CHECK H2O TO INCREASE LEAN FS CONDITION DECREASE IT
H+O2(+N2)=HO2(+N2)       +4.66000000E+012 +4.40000000E-001 +0.00000000E+000 !\Author: SP !\Ref: TROE _ 2000 / PCCP FERNANDES 2008
LOW /           +4.50E+20	-1.73E+00	0.00E+00/ !\Author: SP !\Ref: Lu, Z. 2020. Hydrogen oxidation near the second explosion limit in a flow reactor!
TROE /            +5.00E-01	1.00E+00	1.00E+10	1.00E+30 /
!\Author: ?? !\Ref: MEULLER 99 * 0.76 !\Comment: 
CO+O(+M)=CO2(+M)    1.362E10 0.0 2.384E3
    HE/0.7/
    AR/0.7/
    CO/1.75/
    H2/2.0/
    CO2/3.6/
    H2O/12.0/
    LOW/1.173E24 -2.79E0 4.191E3/
!\Author: UB !\Ref: J.P. SENOSIAIN, S.J. KLIPPENSTEIN, J.A. MILLER, PROC. COMBUST. INST. 30(2005) 945-953. !\Comment: 
CO+OH=CO2+H    2.3E7 1.35 9.74E2
    PLOG/1.315E-2 2.1E5 1.9E0 -1.064E3/
    PLOG/1.315E-1 2.5E5 1.88E0 -1.043E3/
    PLOG/1.315E0 8.7E5 1.73E0 -6.85E2/
    PLOG/1.3158E1 6.8E6 1.48E0 4.8E1/
    PLOG/1.3158E2 2.3E7 1.35E0 9.74E2/
!\Author: UB !\Ref: J.P. SENOSIAIN, S.J. KLIPPENSTEIN, J.A. MILLER, PROC. COMBUST. INST. 30(2005) 945-953. !\Comment: 
CO+OH=HOCO    1.1E20 -2.78 2.056E3
    PLOG/1.3158E-2 1.7E15 -2.68E0 8.59E2/
    PLOG/1.3158E-1 5.9E18 -3.35E0 8.87E2/
    PLOG/1.3158E0 2.6E20 -3.5E0 1.309E3/
    PLOG/1.3158E1 7.1E20 -3.32E0 1.763E3/
    PLOG/1.3158E2 1.1E20 -2.78E0 2.056E3/
CO+HO2=CO2+OH    8.35E3 2.55 1.656E4
!\Author: ?? !\Ref: 86TSA / HAM * 0.44 !\Comment: 
CO+O2=CO2+O    1.119E12 0.0 4.77E4
!\Author:  !\Ref: CURRAN ESTIMATE !\Comment: 
H+CO2=OCHO    7.5E13 0.0 2.9E4
!\Author: ?? !\Ref: JOHN R. BARKER CALCULATION 7 / 3 / 2013 !\Comment: 
HOCO=CO2+H    1.897E38 -8.047 3.424E4
    PLOG/1.0E-3 4.758E18 -3.817E0 1.7676E4/
    PLOG/3.0E-3 2.225E20 -4.149E0 1.9037E4/
    PLOG/9.9E-3 7.564E21 -4.434E0 2.0325E4/
    PLOG/2.96E-2 9.107E24 -5.189E0 2.2419E4/
    PLOG/9.87E-2 3.144E29 -6.376E0 2.5233E4/
    PLOG/2.961E-1 1.15E32 -7.037E0 2.6662E4/
    PLOG/9.869E-1 1.069E36 -8.107E0 2.9064E4/
    PLOG/2.9607E0 2.438E36 -8.153E0 2.9336E4/
    PLOG/9.869E0 6.663E35 -7.919E0 2.9217E4/
    PLOG/2.9607E1 1.723E38 -8.506E0 3.1273E4/
    PLOG/9.869E1 3.007E41 -9.29E0 3.3966E4/
    PLOG/2.9607E2 6.767E36 -7.832E0 3.1613E4/
    PLOG/9.869E2 1.897E38 -8.047E0 3.424E4/
!\Author: SP !\Ref: P GLARBORG P MARSHALL CPL 475(2009) 40-43 !\Comment:  !
CO+H2O2=HOCO+OH    3.6E4 2.5 2.866E4
!\Author: SP !\Ref: H.G. YU, J.S. FRANCISCO, J. CHEM. PHYS. 128(2008) 244315 !\Comment: 
HOCO+H=CO2+H2    3.1E17 -1.3475 5.55E2
!\Author: SP !\Ref: H.G. YU, J.S. FRANCISCO, J. CHEM. PHYS. 128(2008) 244315 !\Comment: 
HOCO+H=CO+H2O    6.0E15 -0.525 2.125E3
!\Author: SP !\Ref: H.G. YU, J.T. MUCKERMAN, J.S. FRANCISCO, J. CHEM. PHYS. 127(2007) 094302. !\Comment: 
HOCO+O=CO2+OH    8.67E12 0.0 0.0E0
!\Author: SP !\Ref: YU ET AL., JPCA, 2005, 109(23) !\Comment: 
HOCO+OH=CO2+H2O    4.56E12 0.0 -8.9E1
    DUP
!\Author: SP !\Ref: YU ET AL., JPCA, 2005, 109(23) !\Comment: 
HOCO+OH=CO2+H2O    9.54E6 2.0 -8.9E1
    DUP
!\Author: SP !\Ref: YU ET AL., JCP, 2008, 129(21) !\Comment: 
HOCO+HO2=CO2+H2O2    3.93E13 0.0 0.0E0
!\Author: SP !\Ref: YU ET AL., JPCA, 2005, 109(23) !\Comment: 
HOCO+O2=CO2+HO2    4.0E9 1.0 0.0E0
!\Author: SP !\Ref: YU AND FRANCISCO, JPCA, 2009, 113(16) !\Comment: 
HOCO+CH3=CO2+CH4    1.36E13 0.0 0.0E0
!\Author: SP !\Ref: YU AND FRANCISCO, JPCA, 2009, 113(16) !\Comment: 
HOCO+CH3=CH2CO+H2O    2.13E13 0.0 0.0E0
!J.TROE, V.G. USHAKOV, J. CHEM. PHYS. 136(2012) 214309 !\Comment: 
!pw
CH3+H(+M)=CH4(+M)    6.47E13 0.185 -5.4E1
    H2/4.0/
    H2O/8.0/
    CO/2.3/
    CO2/4.0/
    AR/1.0/
    CH4/5.0/
    C2H6/4.0/
    N2/1.5/
    HE/0.7/
    CH3OH/6.0/
    O2/1.5/
    LOW/8.54E32 -4.69E0 2.2E3/
    TROE/5.16194E-1 3.6378482E3 1.0E0 1.0E30/
!\Author: UB !\Ref: J.W.SUTHERLAND, M.-C.SU, J.V.MICHAEL, INT.J.CHEM.KINET. 33(2001) 669-684 !\Comment: 
CH4+H=CH3+H2    4.08E3 3.16 8.756E3
!\Author: UB !REF !\Ref:  !\Comment: 
CH4+O=CH3+OH    4.9E6 2.2 7.591E3
!\Author:  !\Ref: J. AGUILERA-IPARRAGUIRRE ET AL. J PHYS CHEM A(2008) 112(30) !\Comment: 1.695E+001 IN ARAMCOMECH1.3(WITH AX1.5) !\Comment: *1.2
CH4+OH=CH3+H2O    5.65476E6 1.93695 2.6562698E3
!\Author:  !\Ref: J. AGUILERA-IPARRAGUIRRE ET AL. J PHYS CHEM A(2008) 112(30) !\Comment: 1.695E+001 IN ARAMCOMECH1.3(WITH AX1.5)
CH4+HO2=CH3+H2O2    1.12E1 3.74 2.1009E4
!\Author:  !\Ref: NEW FIT FROM HJC !\Comment: 
CH4+CH3O2=CH3+CH3O2H    4.45E-3 4.691 1.9868E4
!\Author: pw !\Ref: ZHU AND LIN ET AL. !\Comment: *1.07
CH3+HO2=CH4+O2    1.94633E3 2.83 -3.73E3
!\Author:  !\Ref: GRI 3.0 !\Comment: 
CH4+CH2=2CH3    2.46E6 2.0 8.27E3
!\Author: UB !\Ref: F.HAYES, W.D.LAWRENCE, W.S.STAKER, K.D.KING, J. PHYS. CHEM. 100(1996) 11314-11318 !\Comment: 
CH2(S)+N2=CH2+N2    1.26E13 0.0 4.3E2
!\Author: UB !\Ref: F.HAYES, W.D.LAWRENCE, W.S.STAKER, K.D.KING, J. PHYS. CHEM. 100(1996) 11314-11318 !\Comment: 
CH2(S)+AR=CH2+AR    6.62E12 0.0 4.54E2
!\Author: UB !\Ref: F.HAYES, W.D.LAWRENCE, W.S.STAKER, K.D.KING, J. PHYS. CHEM. 100(1996) 11314-11318 !\Comment: 
CH2(S)+H2O=CH2+H2O    5.48E13 0.0 -4.3E2
!\Author: UB !\Ref: F.HAYES, W.D.LAWRENCE, W.S.STAKER, K.D.KING, J. PHYS. CHEM. 100(1996) 11314-11318 !\Comment: 
CH2(S)+CO=CH2+CO    1.26E13 0.0 4.3E2
!\Author: UB !\Ref: F.HAYES, W.D.LAWRENCE, W.S.STAKER, K.D.KING, J. PHYS. CHEM. 100(1996) 11314-11318 !\Comment: 
CH2(S)+CO2=CH2+CO2    5.48E13 0.0 -4.3E2
!\Author: UB !\Ref: P.-F. LEE, H. MATSUI, W.-Y. CHEN, C.-S. WANG, J. PHYS. CHEM. A, 116(2012) 9245-9254 !\Comment: 
CH2(S)+O2=>H+OH+CO    1.2014E12 0.0 0.0E0
!\Author: UB !\Ref: P.-F. LEE, H. MATSUI, W.-Y. CHEN, C.-S. WANG, J. PHYS. CHEM. A, 116(2012) 9245-9254 !\Comment: 
CH2(S)+O2=CO+H2O    5.1488E11 0.0 0.0E0
!\Author:  !\Ref: GRI 3.0 !\Comment: 
CH2(S)+O=CO+H2    1.5E13 0.0 0.0E0
!\Author:  !\Ref: GRI 3.0 !\Comment: 
CH2(S)+O=HCO+H    1.5E13 0.0 0.0E0
!\Author:  !\Ref: GRI 3.0 !\Comment: 
CH2(S)+H2=CH3+H    7.0E13 0.0 0.0E0
!\Author:  !\Ref: GRI 3.0 !\Comment: 
CH2(S)+H=CH+H2    3.0E13 0.0 0.0E0
!\Author:  !\Ref: GRI 3.0 !\Comment: 
CH2(S)+OH=CH2O+H    3.0E13 0.0 0.0E0
!\Author:  !\Ref: GRI 3.0 !\Comment: 
CH2(S)+CO2=CH2O+CO    1.4E13 0.0 0.0E0
!\Author: UB !\Ref: W. HACH ET AL. BER. BUNSENGES. PHYS. CHEM. 93, 165(1989) !\Comment: 
C2H2+CH2(S)=C2H2+CH2    4.0E13 0.0 0.0E0
!\Author: UB !\Ref: GRI3.0 !\Comment: 
H+CH2(+M)=CH3(+M)    6.0E14 0.0 0.0E0
    AR/0.7/
    CO/1.5/
    CO2/2.0/
    CH4/2.0/
    H2/2.0/
    C2H6/3.0/
    H2O/6.0/
    LOW/1.04E26 -2.76E0 1.6E3/
    TROE/5.62E-1 9.1E1 5.836E3 8.552E3/
!\Author: UB !\Ref: GRI3.0 !\Comment: 
CH+H2(+M)=CH3(+M)    1.97E12 0.43 -3.7E2
    AR/0.7/
    CO/1.5/
    CO2/2.0/
    CH4/2.0/
    H2/2.0/
    C2H6/3.0/
    H2O/6.0/
    LOW/4.82E25 -2.8E0 5.9E2/
    TROE/5.78E-1 1.22E2 2.535E3 9.365E3/
! 2.1E9 0.9929 -2.69E2 !glarborg.2018
CH2+O2=>CO2+2H    4.62E9 0.993 2.0E2
!!1.95E5 2.4202 1.604E3 !12.987
CH2+O2=CH2O+O    1.56E5 2.42 1.604E3
!\Author:  !\Ref: GRI 3.0 !\Comment: 
CH2+O=>CO+2H    5.0E13 0.0 0.0E0
CH2+H=CH+H2    1.6E14 0.0 0.0E0
!\Author: UB !\Ref: K-W LU, H MATSUI, C-L HUANG, P RAGHUNATH, N-S WANG, MC LIN, J. PHYS. CHEM. A 2010, 114, 54935502 !\Comment: 
CH2+H2=CH3+H    4.4E5 2.39 7.35E3
CH2+OH=CH2O+H    2.8E13 0.1228 -1.61E2
CH2+OH=CH+H2O    8.6E5 2.019 6.776E3
2CH2=>C2H2+2H    7.0E13 0.0022 8.0E0
2CH2=C2H2+H2    1.8E13 0.0022 8.0E0
CH3+CH2=C2H4+H    1.2E15 -0.3432 1.53E2
!CRECK=ITV2015
CH2+C2H2=H+C3H3    1.2E13 0.0 6.62E3
!! RATES FROM POLINO ET AL., JPCA, 117 (2013), 12677-12692
C2H2+CH2(S)=>C3H3+H    7.06E15 -0.662 3.77E1
    DUP
!! RATES FROM POLINO ET AL., JPCA, 117 (2013), 12677-12692
C2H2+CH2(S)=>C3H3+H    6.63E7 1.48 -1.65E3
    DUP
!\Author: ?? !\Ref: HWANG, GARDINER, FRENKLACH, HIDAKA, COMB. FL. 67, 65-75(1987) !\Comment: CHV+M(=)CH+M
CHV+AR=CH+AR    4.0E11 0.5 0.0E0
!\Author: ?? !\Ref: HWANG, GARDINER, FRENKLACH, HIDAKA, COMB. FL. 67, 65-75(1987) !\Comment: 
CHV+H2O=CH+H2O    5.3E13 0.0 0.0E0
!\Author: ?? !\Ref: HWANG, GARDINER, FRENKLACH, HIDAKA, COMB. FL. 67, 65-75(1987) !\Comment: 
CHV+CO=CH+CO    2.44E12 0.5 0.0E0
!\Author: ?? !\Ref: HWANG, GARDINER, FRENKLACH, HIDAKA, COMB. FL. 67, 65-75(1987) !\Comment: 
CHV+CO2=CH+CO2    2.41E-1 4.3 -1.694E3
!\Author: ?? !\Ref: HWANG, GARDINER, FRENKLACH, HIDAKA, COMB. FL. 67, 65-75(1987) !\Comment: 
CHV+O2=CH+O2    2.48E6 2.14 -1.72E3
!\Author: ?? !\Ref: HWANG, GARDINER, FRENKLACH, HIDAKA, COMB. FL. 67, 65-75(1987) !\Comment: 
CHV+H2=CH+H2    1.47E14 0.0 1.361E3
!\Author: ?? !\Ref: HWANG, GARDINER, FRENKLACH, HIDAKA, COMB. FL. 67, 65-75(1987) !\Comment: 
CHV+CH4=CH+CH4    1.73E13 0.0 1.67E2
!\Author: ?? !\Ref: HWANG, GARDINER, FRENKLACH, HIDAKA, COMB. FL. 67, 65-75(1987) !\Comment: 
CHV=CH    1.86E6 0.0 0.0E0
!\Author: ?? !\Ref: HWANG, GARDINER, FRENKLACH, HIDAKA, COMB. FL. 67, 65-75(1987) !\Comment: 
CHV+N2=CH+N2    3.03E2 3.4 -3.81E2
!\Author: ?? !\Ref: KATHROTIA ET AL. COMB _ FLAME 2010 !\Comment: 
C+H+M=CHV+M    6.0E14 0.0 6.94E3
!\Author: ABS !\Ref: HALL AND PETERSEN IJCK 2006 !\Comment: 
CH+O2=CO+OHV    3.24E14 -0.4 4.15E3
!\Author:  !\Ref:  !\Comment: 
CH+O2=HCO+O    3.24E14 -0.4 4.15E3
!\Author:  !\Ref:  !\Comment: 
CH+O2=>H+CO+O    4.86E14 -0.4 4.15E3
!\Author:  !\Ref:  !\Comment: 
CH+O2=H+CO2    4.86E14 -0.4 4.15E3
!\Author:  !\Ref: MESSING ET AL.,J. CHEM. PHYS. 74, 3874(1981) !\Comment: 
CH+O=CO+H    5.7E13 0.0 0.0E0
!\Author:  !\Ref: GRI 3.0 !\Comment: 
CH+H=C+H2    1.1E14 0.0 0.0E0
!\Author:  !\Ref: GLARBORG, MILLER, AND KEE, WESTERN STATES SECTION, SAN ANTONIO(1985) !\Comment: 
CH+OH=HCO+H    3.0E13 0.0 0.0E0
CH+H2O=H+CH2O    2.8E7 1.59 -2.61E3
!\Author:  !\Ref: BERMAN, FLEMING, HARVEY AND LIN, 19TH SYMP. COMB. P. 73, 1982 !\Comment: X0.5
CH+CO2=HCO+CO    1.7E12 0.0 6.85E2
!\Author:  !\Ref: GLARBORG, MILLER, AND KEE, WESTERN STATES SECTION, SAN ANTONIO(1985) !\Comment: 
C+OH=CO+H    5.0E13 0.0 0.0E0
!\Author:  !\Ref: GLARBORG, MILLER, AND KEE, WESTERN STATES SECTION, SAN ANTONIO(1985) !\Comment: 
C+O2=CO+O    5.0E13 0.0 0.0E0
!\Author: ?? !\Ref: R.X. FERNANDES ET AL.,J PHYS. CHEM. A,(2006) 110 !\Comment: 
CH3+O2(+M)=CH3O2(+M)    7.812E9 0.9 0.0E0
    LOW/6.85E24 -3.0E0 0.0E0/
    TROE/6.0E-1 1.0E3 7.0E1 1.7E3/
!\Author: ?? !\Ref: N. K. SRINIVASAN ET AL.,J. PHYS. CHEM. A 109, 7902-7914(2005) !\Comment: 
CH3+O2=CH3O+O    7.546E12 0.0 2.832E4
!\Author:  !\Ref: Herbon !\Comment: 
CH3+O2=CH2O+OH    6.969E1 2.858 9.77104E3
CH3O2=CH2O+OH    4.31E19 -3.86 3.627E4
    PLOG/1.0E-2 6.33E27 -7.76E0 3.271E4/
    PLOG/1.0E-1 5.07E26 -7.27E0 3.297E4/
    PLOG/1.0E0 4.45E24 -6.39E0 3.333E4/
    PLOG/1.0E1 8.79E20 -4.86E0 3.377E4/
    PLOG/1.0E2 4.31E19 -3.86E0 3.627E4/
CH3O2=CH2O2H    2.27230796E5 2.3806627 4.16096859E4
!\Author: UB !\Ref: HARDING AND KLIPPENSTEIN 2B04, 30TH SYMP 2004. !\Comment: REVERTING TO ORIGINAL PRODUCTS DUE TO CONVERGENCE PROBLEMS
CH3+O=CH2O+H    5.54E13 0.05 -1.36E2
!\Author: ?? !\Ref: FROM JASPER / KLIPP,J.PHYS.CHEM A 111,19,3932-3950 !\Comment: 
CH3+OH=CH2+H2O    4.293E4 2.568 3.9978E3
!\Author: ?? !\Ref: FROM JASPER / KLIPP,J.PHYS.CHEM A 111,19,3932-3950 !\Comment: ONLY INCLUDING TRANS HCOH FOR SIMPLICITY, DO NOT HAVE TO COMBINE THE K'S. IT
CH3+OH=CH2(S)+H2O    8.433E19 -1.962 8.244E3
    PLOG/1.0E-2 4.936E14 -6.69E-1 -4.458E2/
    PLOG/1.0E-1 1.207E15 -7.78E-1 -1.756E2/
    PLOG/1.0E0 5.282E17 -1.518E0 1.772E3/
    PLOG/1.0E1 4.788E23 -3.155E0 7.003E3/
    PLOG/1.0E2 8.433E19 -1.962E0 8.244E3/
!\Author: ?? !\Ref: FROM JASPER / KLIPP,J.PHYS.CHEM A 111,19,3932-3950 !\Comment: 
CH3+OH=CH2O+H2    9.494E18 -2.199 9.769E3
    PLOG/1.0E-2 3.502E5 1.441E0 -3.244E3/
    PLOG/1.0E-1 8.854E5 1.327E0 -2.975E3/
    PLOG/1.0E0 1.65E7 9.73E-1 -2.01E3/
    PLOG/1.0E1 5.374E9 2.87E-1 2.8E2/
    PLOG/1.0E2 9.494E18 -2.199E0 9.769E3/
!\Author: UB !\Ref: FROM JASPER / KLIPP,J.PHYS.CHEM A 111,19,3932-3950 !\Comment: 1.3*A\
CH3+OH=CH2OH+H    2.3335E14 -0.186 8.6E3
    PLOG/1.0E-2 1.05365E10 9.65E-1 3.21E3/
    PLOG/1.0E-1 1.17455E10 9.5E-1 3.25E3/
    PLOG/1.0E0 3.0459E10 8.33E-1 3.57E3/
    PLOG/1.0E1 9.9125E12 1.34E-1 5.64E3/
    PLOG/1.0E2 2.3335E14 -1.86E-1 8.6E3/
!\Author: ?? !\Ref: FROM JASPER / KLIPP,J.PHYS.CHEM A 111,19,3932-3950 !\Comment: 
CH3+OH=H+CH3O    5.242E10 0.551 1.307E4
    PLOG/1.0E-2 1.186E9 1.016E0 1.194E4/
    PLOG/1.0E-1 1.188E9 1.016E0 1.194E4/
    PLOG/1.0E0 1.23E9 1.011E0 1.195E4/
    PLOG/1.0E1 1.798E9 9.65E-1 1.206E4/
    PLOG/1.0E2 5.242E10 5.51E-1 1.307E4/
!\Author: ?? !\Ref: FROM JASPER / KLIPP,J.PHYS.CHEM A 111,19,3932-3950 !\Comment: 
CH3+OH=HCOH+H2    7.25E20 -2.402 9.639E3
    PLOG/1.0E-2 8.674E8 7.87E-1 -3.046E3/
    PLOG/1.0E-1 3.115E9 6.3E-1 -2.669E3/
    PLOG/1.0E0 1.557E11 1.56E-1 -1.368E3/
    PLOG/1.0E1 1.704E21 -2.641E0 6.412E3/
    PLOG/1.0E2 7.25E20 -2.402E0 9.639E3/
!\Author: PE !\Ref: Hong1.0E12 0.269 -6.875E !\Comment: 
CH3+HO2=CH3O+OH    1.0E12 0.269 -6.875E2
CH3O2+O=CH3O+O2    3.6E13 0.0 0.0E0
CH3O2+H=CH3O+OH    9.6E13 0.0 0.0E0
CH3O2+OH=CH3O+HO2    5.11E15 -0.81 0.0E0
CH3O2+CH3=CH3OH+CH2O    4.39E6 1.55 -1.8895E3
! check
CH3O2+HO2=>O2+CH2O+H2O    2.47E10 0.0 -1.57E3
CH3O2H+HO2=CH3O2+H2O2    4.1E4 2.5 1.0206E4
!\Author:  !\Ref:  !\Comment: 
CH3O2+CH3=2CH3O    5.43957E11 0.353 -1.46E3
2CH3O2=CH3OH+CH2O+O2    2.0E11 -0.55 -1.6E3
! RAS/GLA08b CEC05 (RAS/GLA08d fit 250(T(2000K)
2CH3O2=2CH3O+O2    1.1E18 -2.4 1.8E3
    DUP
! RAS/GLA08b CEC05 (RAS/GLA08d fit 250(T(2000K)
2CH3O2=2CH3O+O2    7.0E10 0.0 8.0E2
    DUP
CH3O2H+H=H2+CH2O+OH    6.29E4 3.01 7.007E3
CH3O2H+H=CH3O2+H2    5.51E1 3.56 2.615E3
CH3O2H+H=CH3O+H2O    8.413E0 3.83 2.1E3
CH3O2H(+M)=CH3O+OH(+M)    4.04972E19 -1.153 4.425049E4
    LOW/3.80285E42 -7.502E0 4.6756097E4/
    TROE/8.375E-1 3.6562E4 4.988E2 9.99E3/
CH2O2H=CH2O+OH    7.0E14 -1.064 1.744E3
    PLOG/4.0E-2 9.6E10 -9.25E-1 1.567E3/
    PLOG/1.0E0 2.4E12 -9.25E-1 1.567E3/
    PLOG/1.0E1 2.5E13 -9.27E-1 1.579E3/
    PLOG/1.0E2 7.0E14 -1.064E0 1.744E3/
CH3O+OH=CH2O+H2O    3.6192E2 2.4976 1.889448E3
CH3O2H+O=CH2O2H+OH    1.6E13 0.0 4.75E3
CH3O2H+O=CH3O2+OH    8.7E12 0.0 4.75E3
CH3O2H+OH=CH3O2+H2O    1.1E12 0.0 -4.37E2
CH3O2H+OH=CH2O2H+H2O    7.2E11 0.0 -2.58E2
!\Author: SP !\Ref: FROM JASPER / KLIPP,J.PHYS.CHEM A 111,19,3932-3950 !\Comment: NEGLECTING HCOH CHANNELS AS THEY ARE NOT IMPORTANT
CH3OH(+M)=CH3+OH(+M)    2.084E18 -0.615 9.25406E4
    LOW/1.5E43 -6.995E0 9.79922E4/
    TROE/7.656E-1 5.951E1 1.91E3 9.374E3/
!\Author: SP !\Ref: FROM JASPER / KLIPP,J.PHYS.CHEM A 111,19,3932-3950 !\Comment: NEGLECTING HCOH CHANNELS AS THEY ARE NOT IMPORTANT
CH3OH(+M)=CH2(S)+H2O(+M)    3.121E18 -1.017 9.1712E4
    LOW/1.43E47 -8.227E0 9.94171E4/
    TROE/9.922E-1 4.731E4 9.43E2 4.711E4/
!\Author: SP !\Ref: FROM JASPER / KLIPP,J.PHYS.CHEM A 111,19,3932-3950 !\Comment: NEGLECTING HCOH CHANNELS AS THEY ARE NOT IMPORTANT
CH3OH(+M)=CH2OH+H(+M)    7.896E-3 5.038 8.44674E4
    LOW/3.39E42 -7.244E0 1.052303E5/
    TROE/6.843E-1 4.1493E4 3.7049E4 3.98E3/
!\Author: UB !\Ref: J.T.JODKOWSKI, ET AL, J. PHYS. CHEM.A, 103(1999) 3750-3765 \ !COMMENT !\Comment: 
CH3OH+H=CH2OH+H2    1.35E3 3.2 3.488E3
!\Author: UB !\Ref: J.I.MOSES ET AL. J. ASTROPHYS. 737(2011) 15 !\Comment: 
CH3OH+H=CH3O+H2    4.1E4 2.658 9.221E3
!\Author: UB !\Ref: H.F.LEFEVRE ET AL. INT. J. CHEM. KINET. 4(1972) 103 !\Comment: 
CH3OH+O=CH3O+OH    1.7E12 0.0 2.285E3
!\Author: UB !\Ref: TSANG, JPC REF. DATA, 16 !\Comment: 
CH3OH+O=CH2OH+OH    3.88E5 2.5 3.08E3
!\Author: UB !\Ref: XU ET AL. PROC 31 2007 159-166 !\Comment: 
CH3OH+OH=CH3O+H2O    1.5E2 3.03 -7.63E2
!\Author: UB !\Ref: XU ET AL. PROC 31 2007 159-166 !\Comment: 
CH3OH+OH=CH2OH+H2O    3.08E4 2.65 -8.067E2
!\Author: UB !\Ref: MOUSAVIPOUR, S. H.; HOMAYOON, Z. J PHYS CHEM A 2011, 115, 3291-3300 !\Comment: 
CH3O+HO2=CH3OH+O2    1.4E11 0.0 0.0E0
!\Author: UB !\Ref: S. J. KLIPPENSTEIN, L. B. HARDING, M. J. DAVIS, A. S. TOMLIN, R. T. SKODJE, PCI, 33(2011) 351-357 !\Comment: ULTAN ADDED 21 / 08 / 15
CH3OH+O2=CH2OH+HO2    3.58E5 2.27 4.27645E4
!\Author:   !\Ref: M. ALTARAWNEH, A. H. AL-MUHTASEB, B. Z. DLUGOGORSKI, E. M. KENNEDY, J. C. MACKIE, J. COMP. CHEM. 32(2011) 1725-1733 !\Comment: decrease 20%
CH3OH+HO2=CH3O+H2O2    1.22E12 0.0 2.00707E4
!\Author: pw !\Ref: M. ALTARAWNEH, A. H. AL-MUHTASEB, B. Z. DLUGOGORSKI, E. M. KENNEDY, J. C. MACKIE, J. COMP. CHEM. 32(2011) 1725-1733 !\Comment: decrease 20%
CH3OH+HO2=CH2OH+H2O2    2.61E13 0.0 1.87822E4
!\Author: UB !\Ref: I. M. ALECU, D. G. TRUHLAR, J. PHYS. CHEM. A, 115(2011) 14599-14611 !\Comment: ULTAN ADDED 21 / 08 / 15
CH3OH+CH3=CH2OH+CH4    2.13E-1 3.953 7.0551E3
!\Author: UB !\Ref: I. M. ALECU, D. G. TRUHLAR, J. PHYS. CHEM. A, 115(2011) 14599-14611 !\Comment: ULTAN ADDED 21 / 08 / 15
CH3OH+CH3=CH3O+CH4    3.22E3 2.425 8.5795E3
!\Author: UB !\Ref: TSANG, JPC REF. DATA, 16 !\Comment: 
CH3OH+HCO=CH2OH+CH2O    9.63E3 2.9 1.311E4
!\Author: UB !\Ref: TSANG, JPC REF. DATA, 16 !\Comment: 
CH3OH+CH3O=CH2OH+CH3OH    3.0E11 0.0 4.074E3
!\Author: UB !\Ref: TSANG, JPC REF. DATA, 16 !\Comment: 
CH3OH+CH3O2=CH2OH+CH3O2H    1.81E12 0.0 1.371E4
CH2OH+O2=CH2O+HO2    7.2E13 0.0 3.736E3
    DUP
CH2OH+O2=CH2O+HO2    2.9E16 -1.5 0.0E0
    DUP
CH2OH+H=CH2O+H2    4.0E6 1.86 1.47E2
CH2OH+HO2=HOCHO+H2O    3.59901E12 0.12 4.54E2
CH2OH+HO2=CH2O+H2O2    1.2E13 0.0 0.0E0
CH2OH+CH3O2=CH3OH+HOCHO    2.32688796E0 2.74 -3.566E3
CH2OH+CH3O2=CH2O+CH3O2H    6.18751523E-1 2.69 -3.428E3
CH2OH+CH3O=CH2O+CH3OH    2.4E13 0.0 0.0E0
CH2OH+OH=H2O+CH2O    2.4E13 0.0 0.0E0
CH2OH+O=OH+CH2O    4.2E13 0.0 0.0E0
2CH2OH=CH2O+CH3OH    3.0E12 0.0 0.0E0
!\Author: UB !\Ref: BAULCH ET AL. J. PHYS. CHEM. REF. DATA, 34(2005) 757 !\Comment: 
CH3O+O2=CH2O+HO2    2.17E10 0.0 1.7487E3
!\Author:  !\Ref: HOYERMANN ET AL., 18TH SYMPOSIUM !\Comment: 
CH3O+H=CH2O+H2    2.0E13 0.0 0.0E0
!\Author:  !\Ref: TSANG AND HAMPSON, J. PHYS. CHEM. REF. DATA, 15 !\Comment: 
CH3O+HO2=CH2O+H2O2    3.01E11 0.0 0.0E0
!\Author:  !\Ref:  !\Comment: 
CH3O+CH3=CH2O+CH4    1.2E13 0.0 0.0E0
2CH3O=CH3OH+CH2O    1.44E5 2.45 -2.26E3
!\Author:  !\Ref: MARINOV 1996 !\Comment: 
HCOH+O2=>CO2+H+OH    5.0E12 0.0 0.0E0
!\Author:  !\Ref: MARINOV 1996 !\Comment: 
HCOH+O2=CO2+H2O    3.0E13 0.0 0.0E0
!\Author:  !\Ref: MARINOV 1996 !\Comment: 
HCOH+O=>CO2+2H    5.0E13 0.0 0.0E0