THERMO
   300.000  1000.000  5000.000
N2                000000N   2               G    300.00   5000.00 1000.00      1
 2.92664000E+00 1.48797700E-03-5.68476100E-07 1.00970400E-10-6.75335100E-15    2
-9.22797700E+02 5.98052800E+00 3.29867700E+00 1.40824000E-03-3.96322200E-06    3
 5.64151500E-09-2.44485500E-12-1.02090000E+03 3.95037200E+00                   4
AR                000000AR  1               G    300.00   5000.00 1000.00      1
 2.50000000E+00 0.00000000E+00 0.00000000E+00 0.00000000E+00 0.00000000E+00    2
-7.45375000E+02 4.36600100E+00 2.50000000E+00 0.00000000E+00 0.00000000E+00    3
 0.00000000E+00 0.00000000E+00-7.45375000E+02 4.36600100E+00                   4
HE                000000HE  1               G    300.00   5000.00 1000.00      1
 2.50000000E+00 0.00000000E+00 0.00000000E+00 0.00000000E+00 0.00000000E+00    2
-7.45375000E+02 9.15348900E-01 2.50000000E+00 0.00000000E+00 0.00000000E+00    3
 0.00000000E+00 0.00000000E+00-7.45375000E+02 9.15348800E-01                   4
H                 000000H   1               G    300.00   5000.00 1000.00      1
 2.50000000E+00 0.00000000E+00 0.00000000E+00 0.00000000E+00 0.00000000E+00    2
 2.54716300E+04-4.60117600E-01 2.50000000E+00 0.00000000E+00 0.00000000E+00    3
 0.00000000E+00 0.00000000E+00 2.54716300E+04-4.60117600E-01                   4
O2                000000O   2               G    300.00   5000.00 1000.00      1
 3.69757800E+00 6.13519700E-04-1.25884200E-07 1.77528100E-11-1.13643500E-15    2
-1.23393000E+03 3.18916600E+00 3.21293600E+00 1.12748600E-03-5.75615000E-07    3
 1.31387700E-09-8.76855400E-13-1.00524900E+03 6.03473800E+00                   4
O                 000000O   1               G    300.00   5000.00 1000.00      1
 2.54206000E+00-2.75506200E-05-3.10280300E-09 4.55106700E-12-4.36805200E-16    2
 2.92308000E+04 4.92030800E+00 2.94642900E+00-1.63816600E-03 2.42103200E-06    3
-1.60284300E-09 3.89069600E-13 2.91476400E+04 2.96399500E+00                   4
OH                000000H   1O   1          G    300.00   5000.00 1000.00      1
 3.72342593E+00-6.42998996E-04 8.03021358E-07-1.89310929E-10 0.00000000E+00    2
 3.37726070E+03 1.00729492E+00 3.41896226E+00 3.19255801E-04-3.08292717E-07    3
 3.64407494E-10-1.00195479E-13 3.45264448E+03 2.54433372E+00                   4
H2                000000H   2               G    300.00   5000.00 1000.00      1
 2.99142300E+00 7.00064400E-04-5.63382900E-08-9.23157800E-12 1.58275200E-15    2
-8.35034000E+02-1.35511000E+00 3.29812400E+00 8.24944200E-04-8.14301500E-07    3
-9.47543400E-11 4.13487200E-13-1.01252100E+03-3.29409400E+00                   4
H2O               000000H   2O   1          G    300.00   5000.00 1000.00      1
 2.67214600E+00 3.05629300E-03-8.73026000E-07 1.20099600E-10-6.39161800E-15    2
-2.98992100E+04 6.86281700E+00 3.38684200E+00 3.47498200E-03-6.35469600E-06    3
 6.96858100E-09-2.50658800E-12-3.02081100E+04 2.59023300E+00                   4
HO2               000000H   1O   2          G    300.00   5000.00 1000.00      1
 4.01721090E+00 2.23982013E-03-6.33658150E-07 1.14246370E-10-1.07908535E-14    2
 1.11856713E+02 3.78510215E+00 4.30179801E+00-4.74912051E-03 2.11582891E-05    3
-2.42763894E-08 9.29225124E-12 2.94808040E+02 3.71666245E+00                   4
H2O2              000000H   2O   2          G    300.00   5000.00 1000.00      1
 4.57316700E+00 4.33613600E-03-1.47468900E-06 2.34890400E-10-1.43165400E-14    2
-1.80069600E+04 5.01137000E-01 3.38875400E+00 6.56922600E-03-1.48501300E-07    3
-4.62580600E-09 2.47151500E-12-1.76631500E+04 6.78536300E+00                   4
CO                000000O   1C   1          G    300.00   5000.00 1000.00      1
 3.11216890E+00 1.15948283E-03-3.38480362E-07 4.41403098E-11-2.12862228E-15    2
-1.42718539E+04 5.71725177E+00 3.19036352E+00 8.94419972E-04-3.24927563E-08    3
-1.04599967E-10 2.41965693E-14-1.42869054E+04 5.33277914E+00                   4
CO2               000000O   2C   1          G    300.00   5000.00 1000.00      1
 3.60285631E+00 4.89154832E-03-2.37518115E-06 4.14110619E-10 0.00000000E+00    2
-4.86621846E+04 3.67802527E+00 2.57930490E+00 8.24684987E-03-6.42716047E-06    3
 2.54637024E-09-4.12030443E-13-4.84162830E+04 8.81141041E+00                   4
HCO               000000H   1O   1C   1     G    300.00   5000.00 1000.00      1
 2.26355800E+00 5.69068757E-03-2.48925808E-06 4.02540871E-10 0.00000000E+00    2
 4.42251484E+03 1.27616432E+01 3.81049965E+00 8.13269825E-04 3.13164701E-06    3
-2.39478268E-09 5.06894554E-13 4.03859901E+03 4.94843165E+00                   4
CH3               000000H   3C   1          G    300.00   5000.00 1000.00      1
 2.69747656E+00 6.36626482E-03-2.25615837E-06 3.02515012E-10 0.00000000E+00    2
 1.65036204E+04 6.28543183E+00 3.43858162E+00 4.07752664E-03 3.19830994E-07    3
-9.47669390E-10 2.21828166E-13 1.63164018E+04 2.52807406E+00                   4
CH4               000000H   4C   1          G    300.00   5000.00 1000.00      1
-3.02514093E+00 2.07639091E-02-1.07081288E-05 1.96299750E-09 0.00000000E+00    2
-8.59358078E+03 3.47383420E+01 3.72113020E+00-2.50293289E-03 1.90246534E-05    3
-1.46871253E-08 3.43791152E-12-1.01424099E+04 1.22776596E+00                   4
CH2O              000000H   2O   1C   1     G    300.00   5000.00 1000.00      1
 6.08466491E-01 1.13972253E-02-5.52287970E-06 9.74262457E-10 0.00000000E+00    2
-1.35727516E+04 1.99968338E+01 3.00754197E+00 3.04729496E-03 5.25109246E-06    3
-5.12019281E-09 1.27133795E-12-1.41188397E+04 8.10120233E+00                   4
O2CHO             000000H   1O   3C   1     G    300.00   5000.00 1000.00      1
 4.05631532E+00 1.02919332E-02-4.89896198E-06 8.42819470E-10 0.00000000E+00    2
-1.73830665E+04 1.12996603E+01 3.96059309E+00 1.06002279E-02-5.25713351E-06    3
 1.01716726E-09-2.87487602E-14-1.73599383E+04 1.17807483E+01                   4
HO2CHO            000000H   2O   3C   1     G    300.00   5000.00 1000.00      1
 5.19208731E+00 1.32377286E-02-6.79541016E-06 1.23480098E-09 0.00000000E+00    2
-3.61691664E+04 3.52718036E+00 2.42464726E+00 2.19706380E-02-1.68705546E-05    3
 6.25612194E-09-9.11645843E-13-3.54828006E+04 1.75027796E+01                   4
OCHO              000000H   1O   2C   1     G    300.00   5000.00 1000.00      1
 1.69314163E+00 1.24325760E-02-6.88672900E-06 1.32157437E-09 0.00000000E+00    2
-1.63316485E+04 1.64338301E+01 1.42991854E+00 1.22803284E-02-5.28461096E-06    3
-3.73026551E-10 5.07953571E-13-1.62042814E+04 1.80411779E+01                   4
HOCH2O            000000H   3O   2C   1     G    300.00   5000.00 1000.00      1
 1.72976110E+00 1.61486804E-02-7.75692098E-06 1.37089042E-09 0.00000000E+00    2
-2.22802407E+04 1.91890617E+01 4.11183145E+00 7.53850697E-03 3.77337370E-06    3
-5.38746005E-09 1.45615887E-12-2.28023001E+04 7.46807254E+00                   4
HOCHO             000000H   2O   2C   1     G    300.00   5000.00 1000.00      1
 1.24573687E+00 1.67242062E-02-9.22177878E-06 1.76438220E-09 0.00000000E+00    2
-4.65097525E+04 1.81159087E+01 1.28069021E+00 1.52887758E-02-5.64150476E-06    3
-1.22968799E-09 8.14273233E-13-4.64347524E+04 1.83142081E+01                   4
CH3O              000000H   3O   1C   1     G    300.00   5000.00 1000.00      1
 6.53747511E-01 1.42780303E-02-6.73501546E-06 1.17149189E-09 0.00000000E+00    2
 1.28865873E+03 2.05835803E+01 2.23058023E+00 8.53178586E-03 1.02166624E-06    3
-3.41046916E-09 9.94691038E-13 9.45939708E+02 1.28377569E+01                   4
CH3OH             000000H   4O   1C   1     G    300.00   5000.00 1000.00      1
 5.93278257E-01 1.62400515E-02-7.29041502E-06 1.22384561E-09 0.00000000E+00    2
-2.49194716E+04 2.10056316E+01 1.82176844E+00 1.23326420E-02-2.73742177E-06    3
-1.07387318E-09 4.23644837E-13-2.52222207E+04 1.48104300E+01                   4
CH2OH             000000H   3O   1C   1     G    300.00   5000.00 1000.00      1
 4.43329890E+00 7.13565049E-03-2.53596912E-06 3.37234968E-10 0.00000000E+00    2
-3.14395040E+03 2.16605922E+00 3.05674228E+00 1.19335634E-02-8.72501303E-06    3
 3.82781054E-09-7.22887951E-13-2.83140190E+03 8.98878133E+00                   4
OCH2O2H           000000H   3O   3C   1     G    300.00   5000.00 1000.00      1
 7.21903740E+00 1.34209857E-02-6.71343373E-06 1.21612841E-09 0.00000000E+00    2
-1.51227045E+04-8.14704577E+00 1.93823075E+00 3.01465730E-02-2.61053152E-05    3
 1.09463562E-08-1.78312692E-12-1.38166625E+04 1.85042002E+01                   4
HOCH2O2           000000H   3O   3C   1     G    300.00   5000.00 1000.00      1
 6.40452208E+00 1.18415320E-02-5.04880737E-06 8.15552999E-10 0.00000000E+00    2
-2.38467196E+04-2.66379952E+00 2.85441621E+00 2.33663535E-02-1.88115990E-05    3
 7.96709515E-09-1.36346618E-12-2.29866196E+04 1.51730565E+01                   4
HOCH2O2H          000000H   4O   3C   1     G    300.00   5000.00 1000.00      1
 7.19939629E+00 1.53774714E-02-7.33105359E-06 1.29038323E-09 0.00000000E+00    2
-4.13515030E+04-7.86430517E+00 1.85716693E+00 3.23153132E-02-2.69928902E-05    3
 1.11694484E-08-1.81284103E-12-4.00314471E+04 1.90917729E+01                   4
CH2               000000H   2C   1          G    300.00   5000.00 1000.00      1
 3.63640800E+00 1.93305700E-03-1.68701600E-07-1.00989900E-10 1.80825600E-14    2
 4.53413400E+04 2.15656100E+00 3.76223700E+00 1.15981900E-03 2.48958500E-07    3
 8.80083600E-10-7.33243500E-13 4.53679100E+04 1.71257800E+00                   4
CH2GSG            000000H   2C   1          G    300.00   5000.00 1000.00      1
 3.55288900E+00 2.06678800E-03-1.91411600E-07-1.10467300E-10 2.02135000E-14    2
 4.98497500E+04 1.68657000E+00 3.97126500E+00-1.69908900E-04 1.02536900E-06    3
 2.49255100E-09-1.98126600E-12 4.98936800E+04 5.75320700E-02                   4
CH3O2             000000H   3O   2C   1     G    300.00   5000.00 1000.00      1
 2.06598098E+00 1.53864276E-02-6.97442864E-06 1.15648676E-09 0.00000000E+00    2
-2.95663888E+01 1.65753622E+01 3.80497590E+00 9.80784660E-03-3.90940624E-07    3
-2.23072602E-09 6.43310820E-13-4.55625796E+02 7.81789100E+00                   4
CH3O2H            000000H   4O   2C   1     G    300.00   5000.00 1000.00      1
 2.86378786E+00 1.88104318E-02-9.12984329E-06 1.59788155E-09 0.00000000E+00    2
-1.74268826E+04 1.14048233E+01 2.83880024E+00 1.86096249E-02-8.48165412E-06    3
 1.00387451E-09 1.71612429E-13-1.74033753E+04 1.16092433E+01                   4
CH                000000H   1C   1          G    300.00   5000.00 1000.00      1
 2.19622300E+00 2.34038100E-03-7.05820100E-07 9.00758200E-11-3.85504000E-15    2
 7.08672300E+04 9.17837300E+00 3.20020200E+00 2.07287600E-03-5.13443100E-06    3
 5.73389000E-09-1.95553300E-12 7.04525900E+04 3.33158800E+00                   4
C                 000000C   1               G    300.00   5000.00 1000.00      1
 2.60208700E+00-1.78708100E-04 9.08704100E-08-1.14993300E-11 3.31084400E-16    2
 8.54215400E+04 4.19517700E+00 2.49858500E+00 8.08577700E-05-2.69769700E-07    3
 3.04072900E-10-1.10665200E-13 8.54587800E+04 4.75345900E+00                   4
C2H6              000000H   6C   2          G    300.00   5000.00 1000.00      1
 3.50915406E-01 2.29412054E-02-1.00149919E-05 1.62037335E-09 0.00000000E+00    2
-1.11567971E+04 1.91705752E+01 4.78623203E-02 2.40569127E-02-1.15155912E-05    3
 2.48666238E-09-1.78343944E-13-1.10923014E+04 2.06544071E+01                   4
C2H5              000000H   5C   2          G    300.00   5000.00 1000.00      1
 1.05306388E+00 1.90883832E-02-8.61058438E-06 1.45032345E-09 0.00000000E+00    2
 1.34615835E+04 1.84070762E+01 1.32730217E+00 1.76656753E-02-6.14926558E-06    3
-3.01143466E-10 4.38617775E-13 1.34284028E+04 1.71789216E+01                   4
C2H4              000000H   4C   2          G    300.00   5000.00 1000.00      1
 1.54096998E+00 1.54163352E-02-6.69289058E-06 1.08463019E-09 0.00000000E+00    2
 5.14686093E+03 1.31345278E+01 2.33879687E-01 1.96334647E-02-1.16833214E-05    3
 3.64246453E-09-4.77442715E-13 5.46489338E+03 1.97084228E+01                   4
C2H5O2            000000H   5O   2C   2     G    300.00   5000.00 1000.00      1
 4.83503732E+00 1.87162611E-02-7.68476909E-06 1.20298178E-09 0.00000000E+00    2
-5.11988573E+03 3.79821963E+00 2.58630333E+00 2.61836362E-02-1.68306193E-05    3
 6.08749295E-09-9.57302040E-13-4.58588992E+03 1.50486289E+01                   4
C2H5O2H           000000H   6O   2C   2     G    300.00   5000.00 1000.00      1
 5.70203347E+00 2.20031800E-02-9.75531641E-06 1.62734437E-09 0.00000000E+00    2
-2.25386960E+04-1.74439233E+00 1.57329011E+00 3.52379996E-02-2.53203993E-05    3
 9.56802476E-09-1.48167375E-12-2.15278368E+04 1.90472032E+01                   4
C2H3              000000H   3C   2          G    300.00   5000.00 1000.00      1
 2.78055099E+00 1.04681533E-02-4.34542148E-06 6.74649462E-10 0.00000000E+00    2
 3.47162787E+04 9.51776357E+00 1.25329724E+00 1.56258370E-02-1.07803879E-05    3
 4.18054634E-09-7.01360362E-13 3.50734773E+04 1.71341661E+01                   4
CH3CHO            000000H   4O   1C   2     G    300.00   5000.00 1000.00      1
 1.61115169E+00 1.93995970E-02-9.00274122E-06 1.53863587E-09 0.00000000E+00    2
-2.17963159E+04 1.71815039E+01 1.77060035E+00 1.84475161E-02-7.24138162E-06    3
 2.34364561E-10 3.35543891E-13-2.18078850E+04 1.65023437E+01                   4
C2H5O             000000H   5O   1C   2     G    300.00   5000.00 1000.00      1
 2.72231762E+00 2.09481644E-02-9.48194920E-06 1.58968632E-09 0.00000000E+00    2
-3.95960954E+03 1.14611113E+01 2.87429022E-01 2.86500918E-02-1.83857008E-05    3
 6.03096179E-09-8.04562643E-13-3.35717377E+03 2.37513898E+01                   4
C2H4O2H           000000H   5O   2C   2     G    300.00   5000.00 1000.00      1
 6.97130909E+00 1.56421742E-02-6.94773712E-06 1.15531646E-09 0.00000000E+00    2
 3.05528448E+03-3.22513967E+00 3.46916874E+00 2.71188626E-02-2.08022550E-05    3
 8.44284845E-09-1.40756215E-12 3.89688270E+03 1.43400726E+01                   4
C2H4O1-2          000000H   4O   1C   2     G    300.00   5000.00 1000.00      1
 1.46888222E+00 2.00779039E-02-9.30425286E-06 1.58964053E-09 0.00000000E+00    2
-8.16183921E+03 1.47895813E+01-1.44361790E+00 2.91837107E-02-1.96805054E-05    3
 6.67472575E-09-9.02139342E-13-7.43433507E+03 2.95212453E+01                   4
C2H3O1-2          000000H   3O   1C   2     G    300.00   5000.00 1000.00      1
 3.41055375E+00 1.35293434E-02-6.24936923E-06 1.09125656E-09 0.00000000E+00    2
 1.39901041E+04 6.79962828E+00-1.62965122E+00 2.93455486E-02-2.43737550E-05    3
 1.00522325E-08-1.61259036E-12 1.52459425E+04 3.22782741E+01                   4
CH3CO             000000H   3O   1C   2     G    300.00   5000.00 1000.00      1
 2.01002485E+00 1.58541129E-02-7.49125231E-06 1.29725074E-09 0.00000000E+00    2
-2.92817041E+03 1.65128972E+01 2.52884150E+00 1.37152173E-02-4.28607476E-06    3
-7.71684278E-10 4.83836380E-13-3.02546532E+03 1.40340315E+01                   4
CH2CHO            000000H   3O   1C   2     G    300.00   5000.00 1000.00      1
 3.70740088E+00 1.36142073E-02-6.26300213E-06 1.05567624E-09 0.00000000E+00    2
-1.01995271E+03 5.17689103E+00 1.47616956E+00 2.08974186E-02-1.50123552E-05    3
 5.62967382E-09-8.76624470E-13-4.82050510E+02 1.63756465E+01                   4
CH3CO3            000000H   3O   3C   2     G    300.00   5000.00 1000.00      1
 6.99421069E+00 1.57684758E-02-7.08319519E-06 1.16988327E-09 0.00000000E+00    2
-2.42270741E+04-5.76704497E+00 3.60373432E+00 2.70080341E-02-2.08293438E-05    3
 8.50541104E-09-1.43846110E-12-2.34205171E+04 1.12014914E+01                   4
CH3CO3H           000000H   4O   3C   2     G    300.00   5000.00 1000.00      1
 6.38601528E+00 2.05005671E-02-9.73848768E-06 1.68404152E-09 0.00000000E+00    2
-4.34818847E+04-3.80203963E+00 2.24135876E+00 3.37963514E-02-2.53887482E-05    3
 9.67583587E-09-1.49266157E-12-4.24677831E+04 1.70668133E+01                   4
CH2CO             000000H   2O   1C   2     G    300.00   5000.00 1000.00      1
 6.03881700E+00 5.80484000E-03-1.92095400E-06 2.79448500E-10-1.45886800E-14    2
-8.58340200E+03-7.65758100E+00 2.97497100E+00 1.21187100E-02-2.34504600E-06    3
-6.46668500E-09 3.90564900E-12-7.63263700E+03 8.67355300E+00                   4
CH3CO2            000000H   3O   2C   2     G    300.00   5000.00 1000.00      1
 4.04855337E+00 1.64184075E-02-7.55750381E-06 1.28409988E-09 0.00000000E+00    2
-2.78926423E+04 4.65191404E+00 1.37440768E+00 2.49115604E-02-1.74308894E-05    3
 6.24799508E-09-9.09516835E-13-2.72330150E+04 1.81405454E+01                   4
HCCO              000000H   1O   1C   2     G    300.00   5000.00 1000.00      1
 6.75807300E+00 2.00040000E-03-2.02760700E-07-1.04113200E-10 1.96516500E-14    2
 1.90151300E+04-9.07126200E+00 5.04796500E+00 4.45347800E-03 2.26828300E-07    3
-1.48209500E-09 2.25074200E-13 1.96589200E+04 4.81843900E-01                   4
C2H2              000000H   2C   2          G    300.00   5000.00 1000.00      1
 5.44234389E+00 2.98512495E-03-3.46684897E-07-7.08771083E-11 0.00000000E+00    2
 2.51854000E+04-8.12661941E+00 2.06742667E+00 1.46568506E-02-1.52947063E-05    3
 8.30965761E-09-1.72932175E-12 2.59578589E+04 8.62758672E+00                   4
C2H               000000H   1C   2          G    300.00   5000.00 1000.00      1
 3.63367853E+00 3.80575785E-03-1.70447579E-06 2.79732702E-10 0.00000000E+00    2
 6.64701585E+04 3.55624922E+00 4.27708350E+00 1.74130076E-03 7.31180206E-07    3
-9.71827901E-10 2.36956727E-13 6.63125955E+04 3.16341916E-01                   4
HCCOH             000000H   2O   1C   2     G    300.00   5000.00 1000.00      1
 7.32832400E+00 3.33641600E-03-3.02470500E-07-1.78110600E-10 3.24516800E-14    2
 7.59825800E+03-1.40121400E+01 3.89946500E+00 9.70107500E-03-3.11930900E-07    3
-5.53773200E-09 2.46573200E-12 8.70119000E+03 4.49187500E+00                   4
C2H5OH            000000H   6O   1C   2     G    300.00   5000.00 1000.00      1
 2.66326411E+00 2.29914941E-02-1.01299488E-05 1.66577682E-09 0.00000000E+00    2
-3.01780356E+04 1.19488420E+01 1.79106094E-01 3.09060081E-02-1.93596697E-05    3
 6.31830859E-09-8.53166875E-13-2.95670605E+04 2.44715919E+01                   4
P-C2H4OH          000000H   5O   1C   2     G    300.00   5000.00 1000.00      1
 3.17379142E+00 1.91877180E-02-8.44919488E-06 1.38903675E-09 0.00000000E+00    2
-5.49673175E+03 1.18622197E+01 9.90023426E-01 2.61564272E-02-1.65928300E-05    3
 5.50525131E-09-7.57520667E-13-4.96032283E+03 2.28675716E+01                   4
S-C2H4OH          000000H   5O   1C   2     G    300.00   5000.00 1000.00      1
 4.36236756E+00 1.73300208E-02-7.40196479E-06 1.18624266E-09 0.00000000E+00    2
-9.37564263E+03 4.21381260E+00 1.61103852E+00 2.63511867E-02-1.82941500E-05    3
 6.91243160E-09-1.10384057E-12-8.71494725E+03 1.80114775E+01                   4
O2C2H4OH          000000H   5O   3C   2     G    300.00   5000.00 1000.00      1
 5.78188660E+00 2.16470981E-02-9.18737915E-06 1.45713298E-09 0.00000000E+00    2
-2.34771645E+04 4.54147881E+00 4.11839445E+00 2.72240632E-02-1.60824430E-05    3
 5.17033408E-09-7.31610168E-13-2.30857785E+04 1.28482112E+01                   4
CH3COCH3          000000H   6O   1C   3     G    300.00   5000.00 1000.00      1
 1.84489296E+00 2.85955513E-02-1.31682116E-05 2.23857327E-09 0.00000000E+00    2
-2.80153880E+04 1.71967179E+01 1.24527408E+00 2.99760255E-02-1.40026661E-05    3
 2.16453512E-09 1.27637295E-13-2.78348727E+04 2.03682615E+01                   4
CH3COCH2          000000H   5O   1C   3     G    300.00   5000.00 1000.00      1
 4.12743010E+00 2.33730564E-02-1.10040288E-05 1.89595418E-09 0.00000000E+00    2
-7.31939257E+03 5.86552803E+00 1.22337251E+00 3.24546742E-02-2.13542518E-05    3
 6.96777735E-09-8.99160299E-13-6.59419324E+03 2.05537233E+01                   4
CH3COCH2O2        000000H   5O   3C   3     G    300.00   5000.00 1000.00      1
 6.39329449E+00 2.51799300E-02-1.09572190E-05 1.75980253E-09 0.00000000E+00    2
-2.07465812E+04 3.13566590E+00 5.95535468E+00 2.70255205E-02-1.37385031E-05    3
 3.53735851E-09-4.03922557E-13-2.06679464E+04 5.21436049E+00                   4
CH3COCH2O2H       000000H   6O   3C   3     G    300.00   5000.00 1000.00      1
 7.24028399E+00 2.85127508E-02-1.30584984E-05 2.19051057E-09 0.00000000E+00    2
-3.94177289E+04-2.99086912E+00 4.94789761E+00 3.60474432E-02-2.21719933E-05    3
 6.98296874E-09-9.21269260E-13-3.88687178E+04 8.49926130E+00                   4
CH3COCH2O         000000H   5O   2C   3     G    300.00   5000.00 1000.00      1
 3.50032506E+00 2.75257713E-02-1.28950710E-05 2.21063245E-09 0.00000000E+00    2
-1.91236482E+04 1.28924392E+01 3.72927689E+00 2.63943697E-02-1.09796486E-05    3
 8.58185303E-10 3.39474590E-13-1.91551565E+04 1.18505335E+01                   4
C2H3CHO           000000H   4O   1C   3     G    300.00   5000.00 1000.00      1
 5.56154592E+00 1.79295837E-02-8.03464758E-06 1.32295375E-09 0.00000000E+00    2
-1.29035886E+04-3.47372739E+00 2.92355162E-01 3.54321417E-02-2.94936324E-05    3
 1.28100124E-08-2.26144108E-12-1.16521584E+04 2.28878280E+01                   4
C2H3CO            000000H   3O   1C   3     G    300.00   5000.00 1000.00      1
 7.49438492E+00 1.07546430E-02-3.99256412E-06 5.48455956E-10 0.00000000E+00    2
 2.82679210E+03-1.33012118E+01 1.36242013E+00 3.15273972E-02-3.00218935E-05    3
 1.48167112E-08-2.87971530E-12 4.25770215E+03 1.72626546E+01                   4
C2H5CHO           000000H   6O   1C   3     G    300.00   5000.00 1000.00      1
-4.81085452E+00 4.36437972E-02-2.10673519E-05 3.54727729E-09 0.00000000E+00    2
-2.25258115E+04 5.34209461E+01 5.93107530E+00 8.87943855E-03 2.03764325E-05    3
-1.80149348E-08 4.14085655E-12-2.51377751E+04-5.87019974E-01                   4
C2H5CO            000000H   5O   1C   3     G    300.00   5000.00 1000.00      1
-6.94645722E+00 4.57483957E-02-2.34142541E-05 4.11886760E-09 0.00000000E+00    2
-2.88661922E+03 6.62371337E+01 8.35352246E+00-4.08739727E-03 3.64217954E-05    3
-2.72457713E-08 6.06440266E-12-6.58577307E+03-1.05948346E+01                   4
CH3OCH3           000000H   6O   1C   2     G    300.00   5000.00 1000.00      1
 8.10330127E-01 2.65923088E-02-1.22882833E-05 2.08823241E-09 0.00000000E+00    2
-2.31328671E+04 2.01412653E+01 1.50763450E+00 2.39914228E-02-8.68910500E-06    3
-9.66835762E-11 4.89319361E-13-2.32810894E+04 1.67317297E+01                   4
CH3OCH2           000000H   5O   1C   2     G    300.00   5000.00 1000.00      1
 2.88564016E+00 2.00972128E-02-8.86437198E-06 1.43757750E-09 0.00000000E+00    2
-1.16039910E+03 1.18400146E+01 2.91327415E+00 2.03364659E-02-9.59712342E-06    3
 2.07478525E-09-1.71343362E-13-1.18844240E+03 1.16066817E+01                   4
CH3OCH2O2         000000H   5O   3C   2     G    300.00   5000.00 1000.00      1
 6.77859461E+00 2.16883731E-02-9.59100160E-06 1.56766855E-09 0.00000000E+00    2
-2.05773390E+04-3.70123048E+00 2.21029612E+00 3.68877454E-02-2.82561555E-05    3
 1.15730533E-08-1.97130470E-12-1.94940940E+04 1.91463601E+01                   4
CH3OCH2O2H        000000H   6O   3C   2     G    300.00   5000.00 1000.00      1
 7.62234215E+00 2.50621981E-02-1.17482645E-05 2.01443886E-09 0.00000000E+00    2
-3.80932377E+04-9.14387582E+00 1.19855761E+00 4.59060764E-02-3.66252420E-05    3
 1.49318970E-08-2.46057445E-12-3.65363161E+04 2.31339904E+01                   4
CH3OCH2O          000000H   5O   2C   2     G    300.00   5000.00 1000.00      1
 1.95639414E+00 2.63630778E-02-1.26268639E-05 2.20578823E-09 0.00000000E+00    2
-1.89171112E+04 1.89347825E+01 3.25889339E+00 2.22146359E-02-7.78556340E-06    3
-2.41484158E-10 4.51914496E-13-1.92377212E+04 1.23680069E+01                   4
CH3OCHO           000000H   4O   2C   2     G    300.00   5000.00 1000.00      1
-9.44114191E-01 3.13266992E-02-1.68308280E-05 3.16580307E-09 0.00000000E+00    2
-4.39688544E+04 3.13208269E+01 2.43526200E+00 1.81948325E-02 1.91236590E-06    3
-8.44248945E-09 2.61758910E-12-4.46514732E+04 1.49522265E+01                   4
CH2OCH2O2H        000000H   5O   3C   2     G    300.00   5000.00 1000.00      1
 9.67966551E+00 1.88443697E-02-8.69141828E-06 1.46802868E-09 0.00000000E+00    2
-1.61394620E+04-1.81373903E+01 2.52895507E+00 4.24128290E-02-3.73406386E-05    3
 1.66639333E-08-2.96443312E-12-1.44293306E+04 1.76899251E+01                   4
O2CH2OCH2O2H      000000H   5O   5C   2     G    300.00   5000.00 1000.00      1
 1.34531977E+01 2.05335582E-02-9.34681436E-06 1.56275330E-09 0.00000000E+00    2
-3.55012286E+04-3.29731520E+01 1.99640551E+00 5.83226232E-02-5.53259778E-05    3
 2.59810540E-08-4.77141005E-12-3.27628742E+04 2.44215005E+01                   4
HO2CH2OCHO        000000H   4O   4C   2     G    300.00   5000.00 1000.00      1
 9.30893518E+00 2.14604810E-02-1.06441318E-05 1.88837816E-09 0.00000000E+00    2
-5.94810865E+04-1.40630935E+01 3.47935703E+00 4.02952392E-02-3.30109296E-05    3
 1.34360117E-08-2.18601580E-12-5.80629934E+04 1.52521392E+01                   4
OCH2OCHO          000000H   3O   3C   2     G    300.00   5000.00 1000.00      1
 2.64583321E+00 2.57459812E-02-1.36638698E-05 2.54852538E-09 0.00000000E+00    2
-3.97056884E+04 1.84876471E+01 5.19690837E+00 1.58839723E-02 3.53540547E-07    3
-6.10456923E-09 1.94661801E-12-4.02242792E+04 6.11645828E+00                   4
HOCH2OCO          000000H   3O   3C   2     G    300.00   5000.00 1000.00      1
 3.21081862E+00 2.33258230E-02-1.20390174E-05 2.20187025E-09 0.00000000E+00    2
-4.33279323E+04 1.66470002E+01 6.08180801E+00 1.28768359E-02 2.04419418E-06    3
-6.10154921E-09 1.79820559E-12-4.39526183E+04 2.54054449E+00                   4
CH2OCHO           000000H   3O   2C   2     G    300.00   5000.00 1000.00      1
 7.22566531E-01 2.49935801E-02-1.35446637E-05 2.56222898E-09 0.00000000E+00    2
-2.00193815E+04 2.46259431E+01 2.31031671E+00 1.80474065E-02-2.71519637E-06    3
-4.60918579E-09 1.70037078E-12-2.02910878E+04 1.71549722E+01                   4
CH3OCO            000000H   3O   2C   2     G    300.00   5000.00 1000.00      1
 8.96049645E-02 2.64901996E-02-1.45801232E-05 2.78768018E-09 0.00000000E+00    2
-2.08196859E+04 2.71039098E+01 2.83313145E+00 1.53447505E-02 1.89583962E-06    3
-7.70200413E-09 2.41564410E-12-2.13431832E+04 1.39524183E+01                   4
C3H8              000000H   8C   3          G    300.00   5000.00 1000.00      1
 1.25605047E+00 3.15794413E-02-1.40401200E-05 2.31498245E-09 0.00000000E+00    2
-1.43654264E+04 1.61548247E+01-3.08230087E-01 3.65331801E-02-1.97610926E-05    3
 5.15283344E-09-5.06336649E-13-1.39792198E+04 2.40478733E+01                   4
N-C3H7            000000H   7C   3          G    300.00   5000.00 1000.00      1
 1.78719087E+00 2.77404084E-02-1.23355226E-05 2.03295084E-09 0.00000000E+00    2
 1.03087069E+04 1.66489231E+01 4.74365329E-01 3.19190367E-02-1.71909780E-05    3
 4.45927887E-09-4.36675398E-13 1.06314565E+04 2.32670929E+01                   4
I-C3H7            000000H   7C   3          G    300.00   5000.00 1000.00      1
-3.51577923E-01 3.12067737E-02-1.43854827E-05 2.44536376E-09 0.00000000E+00    2
 9.64244910E+03 2.81535184E+01 1.63417589E+00 2.40171372E-02-4.72808067E-06    3
-3.24354603E-09 1.23539044E-12 9.20752889E+03 1.83848082E+01                   4
C3H5-A            000000H   5C   3          G    300.00   5000.00 1000.00      1
 3.66851913E+00 1.96203316E-02-8.52931569E-06 1.38113234E-09 0.00000000E+00    2
 1.84905288E+04 3.58640514E+00-5.29131958E-01 3.34559100E-02-2.53401027E-05    3
 1.02865754E-08-1.73258340E-12 1.94941423E+04 2.46172315E+01                   4
C3H6              000000H   6C   3          G    300.00   5000.00 1000.00      1
 1.68134957E+00 2.49690718E-02-1.11276041E-05 1.84413526E-09 0.00000000E+00    2
 8.51445775E+02 1.53699482E+01 3.94615444E-01 2.89107662E-02-1.54886808E-05    3
 3.88814209E-09-3.37890352E-13 1.17760132E+03 2.19003736E+01                   4
N-C3H7O2          000000H   7O   2C   3     G    300.00   5000.00 1000.00      1
 4.71102090E+00 3.06142048E-02-1.34432869E-05 2.17481455E-09 0.00000000E+00    2
-8.53286429E+03 5.98366370E+00 2.10731492E+00 3.96164986E-02-2.49491599E-05    3
 8.59450300E-09-1.31240330E-12-7.93745567E+03 1.89082748E+01                   4
N-C3H7O2H         000000H   8O   2C   3     G    300.00   5000.00 1000.00      1
 5.53195674E+00 3.39906583E-02-1.55632971E-05 2.60796784E-09 0.00000000E+00    2
-2.58355516E+04 6.91563698E-01 1.13366696E+00 4.84919904E-02-3.31801457E-05    3
 1.19308278E-08-1.80905372E-12-2.47845493E+04 2.27256088E+01                   4
I-C3H7O2          000000H   7O   2C   3     G    300.00   5000.00 1000.00      1
 6.12023736E+00 2.85231950E-02-1.23003518E-05 1.95801865E-09 0.00000000E+00    2
-1.13282549E+04-2.75966759E+00 1.49941639E+00 4.43081205E-02-3.22414456E-05    3
 1.29687136E-08-2.23370569E-12-1.02587980E+04 2.02336490E+01                   4
I-C3H7O2H         000000H   8O   2C   3     G    300.00   5000.00 1000.00      1
 6.94298974E+00 3.18935633E-02-1.44142305E-05 2.38953553E-09 0.00000000E+00    2
-2.86314978E+04-8.06117746E+00 5.19265570E-01 5.32111228E-02-4.05156892E-05    3
 1.63346713E-08-2.73751233E-12-2.71048486E+04 2.40815065E+01                   4
C3H5-S            000000H   5C   3          G    300.00   5000.00 1000.00      1
 3.00035963E+00 1.98934212E-02-8.71049618E-06 1.42132580E-09 0.00000000E+00    2
 3.03925922E+04 9.92844079E+00 1.32807335E+00 2.53107914E-02-1.51530439E-05    3
 4.74345565E-09-6.24666084E-13 3.07981100E+04 1.83328787E+01                   4
C3H5-T            000000H   5C   3          G    300.00   5000.00 1000.00      1
 1.94476358E+00 2.14172765E-02-9.55055670E-06 1.58351174E-09 0.00000000E+00    2
 2.96402504E+04 1.59800921E+01 2.17916644E+00 2.03826623E-02-7.91413834E-06    3
 4.76906187E-10 2.70398536E-13 2.96002535E+04 1.48785684E+01                   4
CH3CHCO           000000H   4O   1C   3     G    300.00   5000.00 1000.00      1