ELEMENTS  
C  H  N  O  AR  HE  
END                                               
SPECIES
H       H2      O       O2      OH      H2O     N2      HO2     H2O2    AR      
CO      CO2     CH2O    HCO     HE
CH4		C2H6
END
REACTIONS                                                      
!     1                                                        
H+O2<=>O+OH                    3.547E+15     -0.4060    8354.30
REV                  /         1.027E+13       -0.01     -66.94      /
!     2                                                        
O+H2<=>H+OH                    5.080E+04      2.6700    3166.58
REV                  /         2.637E+04        2.65    2455.96      /
!     3                                                        
OH+H2<=>H+H2O                  2.160E+08      1.5100    1726.22
REV                  /         2.290E+09        1.40    9219.93      /
!     4                                                        
O+H2O<=>2OH                    2.970E+06      2.0200    6743.84
REV                  /         1.454E+05        2.11   -1461.50      /
!     5                                                        
H2+M<=>2H+M                    4.577E+19     -1.4000   52541.52
REV                  /         1.145E+20       -1.68     412.68      /
H2/2.5/ H2O/12/ CO/1.9/ CO2/3.8/                               
!     6                                                        
O2+M<=>2O+M                    4.420E+17     -0.6340   59838.96
REV                  /         6.165E+15       -0.50       0.00      /
H2/2.5/ H2O/12/ AR/0.83/ CO/1.9/ CO2/3.8/ CH4/2/ C2H6/3/ HE/0.83/
!     7                                                        
OH+M<=>O+H+M                   9.780E+17     -0.7430   51384.00
REV                  /         4.714E+18       -1.00       0.00      /
H2/2.5/ H2O/12/ AR/0.75/ CO/1.5/ CO2/2/ CH4/2/ C2H6/3/ HE/0.75/
!     8                                                        
H2O+M<=>H+OH+M                 1.907E+23     -1.8300   59637.65
REV                  /         4.500E+22       -2.00       0.00      /
H2/0.73/ H2O/12/ AR/0.38/ CH4/2/ C2H6/3/ HE/0.38/              
!     9                                                        
H+O2(+M)<=>HO2(+M)             1.475E+12      0.6000       0.00
LOW                  /         3.482E+16       -0.41    -561.15      /
troe                 /        5.0000E-01  1.0000E-30 1.0000E+30 1.0000E+10 /
H2/1.3/ H2O/14/ AR/0.67/ CO/1.9/ CO2/3.8/ CH4/2/ C2H6/3/ HE/0.67/
!    10                                                        
HO2+H<=>H2+O2                  1.660E+13      0.0000     414.19
REV                  /         3.166E+12        0.35   27936.59      /
!    11                                                        
HO2+H<=>2OH                    7.079E+13      0.0000     148.47
REV                  /         2.028E+10        0.72   18540.51      /
!    12                                                        
HO2+O<=>OH+O2                  3.250E+13      0.0000       0.00
REV                  /         3.217E+12        0.33   26814.29      /
!    13                                                        
HO2+OH<=>H2O+O2                2.890E+13      0.0000    -250.13
REV                  /         5.844E+13        0.24   34765.98      /
!    14                                                        
H2O2+O2<=>2HO2                 1.136E+16     -0.3470   25027.68
REV                  /         1.030E+14        0.00    5556.11      /
DUPLICATE                                                      
!    15                                                        
H2O2+O2<=>2HO2                 2.141E+13     -0.3470   18761.95
REV                  /         1.940E+11        0.00    -709.11      /
DUPLICATE                                                      
!    16                                                        
H2O2(+M)<=>2OH(+M)             2.951E+14      0.0000   24373.43
LOW                  /         1.202E+17        0.00   22898.84      /
troe                 /        5.0000E-01  1.0000E-30 1.0000E+30 1.0000E+10 /
H2/2.5/ H2O/12/ AR/0.64/ CO/1.9/ CO2/3.8/ CH4/2/ C2H6/3/ HE/0.64/
!    17                                                        
H2O2+H<=>H2O+OH                2.410E+13      0.0000    1997.99
REV                  /         1.265E+08        1.31   35938.60      /
!    18                                                        
H2O2+H<=>H2+HO2                2.150E+10      1.0000    3019.63
REV                  /         3.716E+07        1.70   11071.97      /
!    19                                                        
H2O2+O<=>OH+HO2                9.550E+06      2.0000    1997.99
REV                  /         8.568E+03        2.68    9340.71      /
!    20                                                        
H2O2+OH<=>H2O+HO2              2.000E+12      0.0000     215.00
REV                  /         3.665E+10        0.59   15762.46      /
DUPLICATE                                                      
!    21                                                        
H2O2+OH<=>H2O+HO2              1.700E+18      0.0000   14801.21
REV                  /         3.115E+16        0.59   30347.26      /
DUPLICATE                                                      
!    22                                                        
CO+O(+M)<=>CO2(+M)             1.800E+10      0.0000    1199.80
LOW                  /         1.350E+24       -2.79    2109.21      /
H2/2/ O2/6/ H2O/6/ AR/0.5/ CO/1.5/ CO2/3.5/ CH4/2/ C2H6/3/ HE/0.5/
!    23                                                        
CO+O2<=>CO2+O                  1.050E+12      0.0000   21409.16
REV                  /         8.035E+15       -0.80   25782.59      /
!    24                                                        
CO+OH<=>CO2+H                  1.784E+05      1.8900    -582.79
REV                  /         4.717E+11        0.70   12209.36      /
!    25                                                        
CO+HO2<=>CO2+OH                1.570E+05      2.1800    9028.69
REV                  /         1.189E+08        1.71   40216.41      /
!    26                                                        
HCO+M<=>H+CO+M                 4.750E+11      0.6600    7483.64
REV                  /         3.582E+10        1.04    -230.15      /
H2/2/ H2O/12/ CO/1.5/ CO2/2/ CH4/2/ C2H6/3/                    
!    27                                                        
HCO+O2<=>CO+HO2                7.580E+12      0.0000     206.34
REV                  /         1.198E+12        0.31   17086.06      /
!    28                                                        
HCO+H<=>CO+H2                  7.340E+13      0.0000       0.00
REV                  /         2.212E+12        0.66   44403.63      /
!    29                                                        
HCO+O<=>CO+OH                  3.020E+13      0.0000       0.00
REV                  /         4.725E+11        0.64   43694.01      /
!    30                                                        
HCO+O<=>CO2+H                  3.000E+13      0.0000       0.00
REV                  /         1.241E+18       -0.55   56467.04      /
!    31                                                        
HCO+OH<=>CO+H2O                1.020E+14      0.0000       0.00
REV                  /         3.259E+13        0.55   51887.27      /
!    33                                                        
HCO+HO2<=>CH2O+O2              2.499E+14     -0.0610    7005.54
REV                  /         8.070E+15        0.00   26884.75      /
!    34                                                        
HCO+HO2<=>CO2+H+OH             3.000E+13      0.0000       0.00
REV                  /         0.000E+00        0.00       0.00      /
!    36                                                        
CH2O+CO<=>2HCO                 9.186E+13      0.3700   36758.93
REV                  /         1.800E+13        0.00       0.00      /
!    37                                                        
2HCO<=>H2+2CO                  3.000E+12      0.0000       0.00
REV                  /         0.000E+00        0.00       0.00      /
!    38                                                        
HCO+H(+M)<=>CH2O(+M)           1.090E+12      0.4800    -130.85
LOW                  /         1.350E+24       -2.57     717.16      /
troe                 /        7.8240E-01  2.7100E+02 2.7550E+03 6.5700E+03 /
H2/2/ H2O/6/ AR/0.7/ CO/1.5/ CO2/2/ CH4/2/ C2H6/3/ HE/0.7/     
!    39                                                        
CO+H2(+M)<=>CH2O(+M)           4.300E+07      1.5000   40060.39
LOW                  /         5.070E+27       -3.42   42449.93      /
troe                 /        9.3200E-01  1.9700E+02 1.5400E+03 1.0300E+04 /
H2/2/ H2O/6/ AR/0.7/ CO/1.5/ CO2/2/ CH4/2/ C2H6/3/ HE/0.7/     
!    40                                                        
CH2O+OH<=>HCO+H2O              7.820E+07      1.6300    -530.95
REV                  /         4.896E+06        1.81   14609.97      /
!    41                                                        
CH2O+H<=>HCO+H2                5.740E+07      1.9000    1378.96
REV                  /         3.390E+05        2.19    9023.65      /
!    42                                                        
CH2O+O<=>HCO+OH                6.260E+09      1.1500    1137.39
REV                  /         1.919E+07        1.42    8072.47      /
!    44                                                        
CH2O+HO2<=>HCO+H2O2            7.100E-03      4.5170    3311.53
REV                  /         2.426E-02        4.11    2903.37      /
END
