! generator: yaml2ck
! cantera-version: 3.0.1
! date: Thu, 14 Nov 2024 20:40:36 +0530
! input-files: ['MB_MB2D_LALIT_2024.yaml']
!

ELEMENTS
C H N O Ar He
END

SPECIES
AR  N2  HE  H2  H  O2  O  H2O  OH  OHV  H2O2  HO2  HOCO  CO  CO2  CH3O2H  CH3O2
CH2O2H  CH4  CH3  CH2  CH2(S)  C  CH  CHV  CH3OH  CH3O  CH2OH  HOCHO  OCHO  CH2O
HCO  HCOH  C2H5O2  C2H6  C2H5  CHOCHO  C2H3OOH  CHCHO  C2H4  C2H3  C2O  C2H2
C2H  H2CC  C2H4O2H  C2H4O1-2  C2H3O1-2  C2H5OH  C2H5O  PC2H4OH  SC2H4OH
O2CH2CHO  HO2CH2CO  CH2CO2  CH3CHO  CH3CO  CH2CHO  C2H3OH  CH2CO  HCCO  HCCOH
CH3CCO  CH3OCO  NC3H7O2  NC3H7CO  C3H6OOH1-2  C3H6OOH1-3  C3H6OOH1-3O2  C3KET13
C3H6O1-2  C3H6O1-3  OCHCH2CH2O  C3H8  IC3H7  NC3H7  CH3CHCHO  CH3CHCO  C3H5O
CH2CHOCH2  AC3H5OOH  C3H6  C3H5-A  C3H5-S  C3H5-T  CC3H5  SC3H4OH  C3H3O  C2HCHO
CH2CCH2OOH  CH2CHCH2OO  C3H4-P  C3H4-A  C3H3  C3H2  C3H2C  CH2CCH2OH  C3H6OH2-1
IC3H5OH  CH3COCH2O2  CH3COCH2O  C3KET21  CH3COCH2  C2H3CHO  C2H3CO  C2H5CHO
C2H5CO  CH2CH2CHO  CH2CHCHOH  C4H8O1-2  C4H71-O  C4H5-2C2H  CH2CCHCH2CHCH2
SC3H5CHO  SC3H5CO  C4H8-1  C4H71-1  C4H71-3  C4H71-4  C4H6-1  C4H5-3  C3H4O1-2
C4H5-4  C2HCOCH3  C4H64,2-1OH  CC5H9OH-A  CC5H8OHA-B  CC5H8OHA-BO  C4H5OH-13
NC4H9OH  CYHEXDN13  CYHEXDN14  C6H8  CYHEXEN-4J  CYPENTN-4MJ  CYPENTN-4M4J
CYPENTN-4M3J  CH2CHCHCHO  C4H4O  C4H6  C4H5-I  C4H5-N  C4H5-2  C4H4  C4H3-I
C4H3-N  C4H2  C4H612  C4H6-2  H2C4O  C2H5COCH2  CH2CH2COCH3  CH3CHCOCH3
C2H3COCH3  C2H5CHCO  C8H131-5,3,TA  C8H131-5,3,TAO  C5H5CH3-1  C5H5CH3-2
C5H5CH2-1  C5H5CH2-2  CYC6H7  C6H7-2  C5H4CH3  C5H5CH2  C2H4OCHO  C5H81-2
C5H81-3  C5H82-3  C5H8-2  C5H7-13-3  CVCCJCVC  CVCCVCCVO  C5H91-1  C5H91-3
CC5H9-A  AC5H9-A2  B13DE2M  AC3H5CHO  NC53ONE-1  NC6H14  C6H13-2  C6H111O2-5
C6H111O2-6  C6H111OO2-5  C6H11O1-2O-5  C6H101OOH5-3  C6H101OOH6-4  C6H101OOH6-3
C6H101OOH5-6  C6H101OOH5-4  C6H101OOH6-5  C6H101O4-6  C6H101O5-6  C6H102-4
C6H10D14  C6H101-5  C6H101-3  P13DE1J  CVCCJCVCC  CVCCVCCOJC  CVCCOJCVCC  C6H9-A
C6H9-13-2  C6H9-13-6  I3C7D1  I3C7D1-3  I3C7D1-3O  C6H12-1  C6H12-2  C6H12-3
C6H111-3  C6H111-4  C6H111-5  C6H111-6  C6H112-4  C6H112-5  C6H112-6  C6H113-1
C6H11OH2-2  C6H11OH3-2  CHXRAD  CYCHEXENE  CYHX1N3OJ  CYHX1N3J  HX2N1AL6J
I3C6D3  I3C6OOH4-3  I3C6O3-4  C5D2Y1-1R  C6D2Y1-1R  C7H14-2  C7H131-3  C7H132-4
C7H132-5  L-C6H4  C-C6H4  C6H3  C6H2  C6H5OO  C6H5OOH  A1-C6H6  FULVENE  C6H5
OC6H4OH  O-C6H4O2  P-C6H4O2  P-C6H3O2  C6H5OH  C6H5O  C6H4OH  CVCCVCCOH  C5H5O
C5H4OH  C5H4O  C5H3O  CVCCVCCJVO  CJVCCVO  OC5H7O  C5H6  C5H5  C5H6-L  C#CCVCCJ
C5H7  C6H5CH3  C6H5CH2  C7H6  C7H5  C6H5CHO  C6H5CO  HOC6H4CH3  HOC6H4CH2
OC6H4CH3  C6H5CH2OH  C6H5CH2O  C6H5C2H  IND  C10H10  C5H5CH3  C9H6O  ME2J  ME2DO
MP2D2J  MP2D3J  MP2DMJ  MP2D  BAOJ  MB2D  MB2J  MBMJ  MB3J  MB3O  MB4J
MB-C5H10O2  MP3J  MBMDO  MB4DO  MB2OO  MB3OO  MB4OO  MBMOO  MB2OOH4J  MB3OOH2J
MB3OOHMJ  MB4OOH3J  MB4OOH2J  MBMOOH3J  MBMOOH2J  MBMOOH4J  MB3D  MBCY3O2
MBCY4O3  MBCY4O2  MBCY2OM  NC3H7COOO  NC3H7COOOH  CHOCO2J  MBMOOH3O2  MBMOOH4O2
MB2OOH4O2  MB3OOHMO2  MB4OOH2O2  MB4OOHMO2  MBKET42  MBKET3M  MBKET24  MBKETM4
MBKET4M  MB3DMOOH  MP2DO3J  BAOJ3DO  MPMDO3J  BAOJ4DO  MB2OOH3J  MB3OOH4J  MB3DO
CHOOCO  MBMJDO  MB2DMJ  MB2D4J  BAOJ2D  CH2CHCHCO  MP2T  IC5D1T3-1J  HOCH2O
C2H3OO  C2H2OH  CH3COCH  CH3COCHO  CH2CHOCHO  CH2CHOCO  AC4H7OOH  CC3H6  C3H3O2H
H2CCC(S)  C3H2(S)  CCYCCJO  C3H5OH  CH3COCH3  CH2OHCHCHO  CH2OHCH(OO)CHO
CH2OHCH(OOH)CO  CH3CH(OO)CHO  QCH3CH(OOH)CO  CY(CCCOO)  CY(CCO)CO  SC4H9O2
C4H8O2-3  C4H10  PC4H9  SC4H9  IC3H7CHO  SC4H7OH-I  TC3H6CHO  IC3H5CHO  IC3H6CO
IC3H5CO  IC3H4CHO-A  CHCCH2CH2CHCH2  IC4H8  IC4H7  C4H71-4O2  C4H71-2  C2H5CCO
C4H8-2  C4H71-1OH  C4H63,1-2OH  C4H64,1-1OH  CH2CYC3H4OH  C4H63,1-1OH  HOCH2CHO
FURAN  C4H5O-3  C2H3CHOHCH2  CH2CCOCH3  C3H7CHO  C3H6CHO-1  C3H6CHO-2  C5H8D14
CYC3H5CHCH3  CYC3H5CHCH2  C5H7-13-2  C5H10-1  C5H92-5  AC5H9-C  AC5H9-D
B13DE2MJ  C6H12O2-3  C6H13-1  C6H13-3  C6H9D14-6OOH  C6H101O4-5  C6H101OOH6-5O2
C6H101OOH6-4O2  NC6D1KET65  C6H9-13-3  C6H111-2  C6H113-3  CHX  I3C6D3-1
I3C6D3-2  I3C6OOH3-4  XC6D1-1A  I3C6D13  C7H14-3  C7H133-6  O-OC6H5OJ  C5H5OH
CJVCCVCCVO  BZCOOH  C6H5CH2OO  C6H4CH3  C6H5C2H3  C6H5CCH2  C6H5CHCH  C9H7  MB2O
MB4OOHMJ  MBCY3OM  MMCYMOO1  MB2D2J  MB2D3J  CJHCHCHCO  BUTA123TRIENE  IC5D1T3
IC5D1T3-1V  IC5D1T3-4J  HO2CHO  O2CHO  C2H5O2H  CH2COOH  CH3CO3H  CH3CO3  CH3CO2
CH3OCHO  SC3H5OO  O2CH2CH2CHO  QHO2CH2CH2CO  CCYCCO-T1  C4H61KET43  C4H61KET43O
HOCH2CO  C6H9-AOOH  C14H12O  C14H13  C14H12  C14H11  MBMO  MB4O  MB3OOH  MB4OOH
C2H5COCO  COCO  MB2D4OJ  SC3H3CO  MB2,3DMJ  MP2J  MB2D4OOJ  MB2,3D  MB2D4OOHMJ
MB2D4OOHMO2  MB2DKET4M  BAOJ2D4DO  MB2DMOOJ  MB2D4OOH3J  CH3OCH3  C2H3COOH
AC5H10OOH-B  AC5H10  IC6D1  IC6D1-1A  C6H5C2H5  PC3H4OH-2  C3H6OH1-1  NC3H7O
C3H5CHOQ2-1  CH3CYC2H2OCHO  CH3CHOOHCHCO  OVCCVCCJVO  IC3H5COCH3  AC3H4COCH3
C5H82OOH1-4  C5H82KET45  CH3COOH  C6H13O2-2  C6H12O3-4  C6H11OJ3  OCHCHCHCJO
C6H101OOH5-3O2  NC6D1KET53  SC2H2OH  CH3CCHO  SC3H5OH  C2H3CHOHOJ  SC4H7OH-IP
SC4H7O-I  IC3H7CO  IC4H7-I1  CH3CHCCO  C4H72-2  CH2COHCHO  HOCHCHO  OVCCVCVO
C5H8-1  AC3H5CO  C2H3COCH2  C7H133-5  OC6H4CH2  C6H5CHOH  NAPHO  MB2OOHMJ
MP2D3OH  MP2D3OHMJ  OHCHCHCJO  OCJCHCO  MP2D3OJ  MB2M3J  MB2DMOOH4J  MB2DMOOH4O2
MB2D4OOH2J  MB2D4OOH2O2  MB2DKET42  C2  CH3CHOHOJ  PC3H4OH-1  CH3C(OH)CH
C4H8OOH2-3  C4H7O2-1  CH3COHCO  C4H51,3OH2  C5H7-14-1  C5H92-3  NC6D1KET65O
MB3M2J  MB3M3J  MB2DCY4O2  C5H92-2  CC5H9-B  CH3CHOCHCO  C6H111O2-4  C6H111OO2-4
MB2D4JMDO  C5H7O2MDO  C4H6O25  IC4H7-I1OO  C5H92-5O2  C5H82O4-5  IC6D1-5  IC6D14
HOC6H4CHO  HOC6H4CO  HOC6H4CH2OO  ME2DOMJ  MEMDO2J  MB4JDO  MECY2OM  MMMOOH1J
C2H3CO2  MBCY4OM  HCOCO  MEMOOH2J  C2H4CHO  MPMDO2D  MPMJDO2D  MP2D3JMDO
MB2DKETM4  MB2DCY4OM  MB3D3J  MBOJ3OOH  MBOH3OOJ  MBOH-3J  C3KET12  C5H7O3-B
MB1D3OOH  C3H4O3  MB3J2O  C5H7O3-A  MB3D1OOH  MB2J4O  MBOH-2J  MBOH2OOJ  C4H4O13
MBMOOH  MB2OOH  MP3DO2D  ME2JDO  MBOJ2OOH  C5H10-3OH2  MC4H7AO2  AC3H6O2
MC3H6-OH  MP1J  MB3MOOH4J  MB24OOHMJ  MB42OOHMJ  MBM4OOH2J  MB3D2OOH  MB3MOOH2J
CH3COCH2CO  OCH2O2H  HOCH2O2  HOCH2O2H  MB2DO
END

THERMO ALL
10.000   1000.000  6000.000

AR                      Ar  1               G 200.000   6000.000   1000.000    1
 2.50000000E+00 0.00000000E+00 0.00000000E+00 0.00000000E+00 0.00000000E+00    2
-7.45375000E+02 4.37967491E+00 2.50000000E+00 0.00000000E+00 0.00000000E+00    3
 0.00000000E+00 0.00000000E+00-7.45375000E+02 4.37967491E+00                   4
N2                      N   2               G 200.000   6000.000   1000.000    1
 2.95257637E+00 1.39690040E-03-4.92631603E-07 7.86010195E-11-4.60755204E-15    2
-9.23948688E+02 5.87188762E+00 3.53100528E+00-1.23660988E-04-5.02999433E-07    3
 2.43530612E-09-1.40881235E-12-1.04697628E+03 2.96747038E+00                   4
HE                      He  1               G 200.000   6000.000   1000.000    1
 2.50000000E+00 0.00000000E+00 0.00000000E+00 0.00000000E+00 0.00000000E+00    2
-7.45375000E+02 9.28723974E-01 2.50000000E+00 0.00000000E+00 0.00000000E+00    3
 0.00000000E+00 0.00000000E+00-7.45375000E+02 9.28723974E-01                   4
H2                      H   2               G 200.000   6000.000   1000.000    1
 2.93286575E+00 8.26608026E-04-1.46402364E-07 1.54100414E-11-6.88804800E-16    2
-8.13065581E+02-1.02432865E+00 2.34433112E+00 7.98052075E-03-1.94781510E-05    3
 2.01572094E-08-7.37611761E-12-9.17935173E+02 6.83010238E-01                   4
H                       H   1               G 200.000   6000.000   1000.000    1
 2.50000000E+00 0.00000000E+00 0.00000000E+00 0.00000000E+00 0.00000000E+00    2
 2.54736600E+04-4.46682850E-01 2.50000000E+00 0.00000000E+00 0.00000000E+00    3
 0.00000000E+00 0.00000000E+00 2.54736600E+04-4.46682850E-01                   4
O2                      O   2               G 200.000   6000.000   1000.000    1
 3.66096065E+00 6.56365811E-04-1.41149627E-07 2.05797935E-11-1.29913436E-15    2
-1.21597718E+03 3.41536279E+00 3.78245636E+00-2.99673416E-03 9.84730201E-06    3
-9.68129509E-09 3.24372837E-12-1.06394356E+03 3.65767573E+00                   4
O                       O   1               G 200.000   6000.000   1000.000    1
 2.54363697E+00-2.73162486E-05-4.19029520E-09 4.95481845E-12-4.79553694E-16    2
 2.92260120E+04 4.92229457E+00 3.16826710E+00-3.27931884E-03 6.64306396E-06    3
-6.12806624E-09 2.11265971E-12 2.91222592E+04 2.05193346E+00                   4
!Vernon 2021 PROCI  [_ AbsorptionCoefficients=" 2 300 2500 -2.3093D-01 -1.1239D+03 9.4153D+06 -2.9988D+09 5.1382D+11 -1.8684D+10 0 " _]
H2O                     H   2O   1          G 200.000   6000.000   1000.000    1
 2.67703890E+00 2.97318160E-03-7.73768890E-07 9.44335140E-11-4.26899910E-15    2
-2.98858940E+04 6.88255000E+00 4.19863520E+00-2.03640170E-03 6.52034160E-06    3
-5.48792690E-09 1.77196800E-12-3.02937260E+04-8.49009010E-01                   4
OH                      H   1O   1          G 200.000   6000.000   1000.000    1
 2.83853033E+00 1.10741289E-03-2.94000209E-07 4.20698729E-11-2.42289890E-15    2
 3.69780808E+03 5.84494652E+00 3.99198424E+00-2.40106655E-03 4.61664033E-06    3
-3.87916306E-09 1.36319502E-12 3.36889836E+03-1.03998477E-01                   4
OHV                     H   1O   1          G 300.000   5000.000   1710.000    1
 2.85376040E+00 1.02994334E-03-2.32666477E-07 1.93750704E-11-3.15759847E-16    2
 5.03225473E+04 5.76240468E+00 3.41896226E+00 3.19255801E-04-3.08292717E-07    3
 3.64407494E-10-1.00195479E-13 5.00756946E+04 2.51917016E+00                   4
H2O2                    H   2O   2          G 200.000   6000.000   1000.000    1
 4.57977305E+00 4.05326003E-03-1.29844730E-06 1.98211400E-10-1.13968792E-14    2
-1.80071775E+04 6.64970694E-01 4.31515149E+00-8.47390622E-04 1.76404323E-05    3
-2.26762944E-08 9.08950158E-12-1.77067437E+04 3.27373319E+00                   4
HO2                     H   1O   2          G 200.000   5000.000   1000.000    1
 4.17228741E+00 1.88117627E-03-3.46277286E-07 1.94657549E-11 1.76256905E-16    2
 3.10206839E+01 2.95767672E+00 4.30179807E+00-4.74912097E-03 2.11582905E-05    3
-2.42763914E-08 9.29225225E-12 2.64018485E+02 3.71666220E+00                   4
HOCO                    C   1H   1O   2     G 200.000   6000.000   1000.000    1
 5.39206152E+00 4.11221455E-03-1.48194900E-06 2.39875460E-10-1.43903104E-14    2
-2.38606717E+04-2.23529091E+00 2.92207919E+00 7.62453859E-03 3.29884437E-06    3
-1.07135205E-08 5.11587057E-12-2.30281524E+04 1.12925886E+01                   4
![_ AbsorptionCoefficients=" 1 300 750  4.7869D+00 -6.953D-02 2.95775D-04 -4.25732D-07  2.02894D-10 0 0 " _] [_ AbsorptionCoefficients=" 1 750 2500 1.0090D+01 -1.183D-02 4.77530D-06 -5.87209D-10 -2.53340D-14 0 0 " _]
CO                      C   1O   1          G 200.000   6000.000   1000.000    1
 3.04848590E+00 1.35172810E-03-4.85794050E-07 7.88536440E-11-4.69807460E-15    2
-1.42661170E+04 6.01709770E+00 3.57953350E+00-6.10353690E-04 1.01681430E-06    3
 9.07005860E-10-9.04424490E-13-1.43440860E+04 3.50840930E+00                   4
![_ AbsorptionCoefficients=" 2 300 2500 1.8741D+01 -1.2131D+05 2.735D+08 -1.9405D+11 5.631D+13 -5.8169D+15 0 " _]
CO2                     C   1O   2          G 200.000   6000.000   1000.000    1
 4.63651110E+00 2.74145690E-03-9.95897590E-07 1.60386660E-10-9.16198570E-15    2
-4.90249040E+04-1.93489550E+00 2.35681300E+00 8.98412990E-03-7.12206320E-06    3
 2.45730080E-09-1.42885480E-13-4.83719710E+04 9.90090350E+00                   4
CH3O2H                  C   1H   4O   2     G 200.000   3000.000   1000.000    1
 4.20735213E+00 1.55094660E-02-7.66929578E-06 1.83432162E-09-1.72492118E-13    2
-1.74303104E+04 4.24021387E+00 4.65854273E+00 3.10653649E-04 4.25717961E-05    3
-5.64767746E-08 2.26451339E-11-1.70148766E+04 4.93439159E+00                   4
CH3O2                   C   1H   3O   2     G 200.000   3000.000   1000.000    1
 3.06355808E+00 1.41402571E-02-7.09719627E-06 1.72124732E-09-1.63773189E-13    2
-1.24115232E+02 1.06316786E+01 5.52804580E+00-8.77390670E-03 5.35999599E-05    3
-6.22370558E-08 2.35470499E-11-1.16495256E+02 1.56491488E+00                   4
CH2O2H                  C   1H   3O   2     G 300.000   5000.000   1410.000    1
 9.24697852E+00 4.60845541E-03-1.53501472E-06 2.34434830E-10-1.34573106E-14    2
 4.11529953E+03-2.11503248E+01 2.88976454E+00 2.09465776E-02-1.75190772E-05    3
 7.27819787E-09-1.18912344E-12 6.12390620E+03 1.23802076E+01                   4
![_ AbsorptionCoefficients=" 1 300 2500 6.6334D+00 -3.5686D-03 1.6682D-08 2.5611D-10 -2.6558D-14 0 0 " _]
CH4                     C   1H   4          G 200.000   6000.000   1000.000    1
 1.65326226E+00 1.00263099E-02-3.31661238E-06 5.36483138E-10-3.14696758E-14    2
-1.00095936E+04 9.90506283E+00 5.14911468E+00-1.36622009E-02 4.91453921E-05    3
-4.84246767E-08 1.66603441E-11-1.02465983E+04-4.63848842E+00                   4
CH3                     C   1H   3          G 200.000   6000.000   1000.000    1
 2.97812060E+00 5.79785200E-03-1.97558000E-06 3.07297900E-10-1.79174160E-14    2
 1.65095130E+04 4.72247990E+00 3.65717970E+00 2.12659790E-03 5.45838830E-06    3
-6.61810030E-09 2.46570740E-12 1.64227160E+04 1.67353540E+00                   4
CH2                     C   1H   2          G 200.000   6000.000   1000.000    1
 3.14631886E+00 3.03671259E-03-9.96474439E-07 1.50483580E-10-8.57335515E-15    2
 4.60412605E+04 4.72341711E+00 3.71757846E+00 1.27391260E-03 2.17347251E-06    3
-3.48858500E-09 1.65208866E-12 4.58723866E+04 1.75297945E+00                   4
CH2(S)                  C   1H   2          G 200.000   6000.000   1000.000    1
 3.13501686E+00 2.89593926E-03-8.16668090E-07 1.13572697E-10-6.36262835E-15    2
 5.05040504E+04 4.06030621E+00 4.19331325E+00-2.33105184E-03 8.15676451E-06    3
-6.62985981E-09 1.93233199E-12 5.03662246E+04-7.46734310E-01                   4
C                       C   1               G 200.000   6000.000   1000.000    1
 2.60558300E+00-1.95934340E-04 1.06737220E-07-1.64239400E-11 8.18705800E-16    2
 8.54117420E+04 4.19238680E+00 2.55423950E+00-3.21537720E-04 7.33792230E-07    3
-7.32234870E-10 2.66521440E-13 8.54426810E+04 4.53130850E+00                   4
CH                      C   1H   1          G 200.000   6000.000   1000.000    1
 2.52093690E+00 1.76536390E-03-4.61476600E-07 5.92896750E-11-3.34745010E-15    2
 7.09467690E+04 7.40518290E+00 3.48975830E+00 3.24321600E-04-1.68997510E-06    3
 3.16284200E-09-1.40618030E-12 7.06126460E+04 2.08428410E+00                   4
CHV                     C   1H   1          G 300.000   5000.000   1365.000    1
 2.21342975E+00 2.15716841E-03-5.73074267E-07 6.56809882E-11-2.67729778E-15    2
 1.04415563E+05 9.20307557E+00 3.50778851E+00-4.60811343E-04 1.32973337E-06    3
-5.15427373E-10 5.83223892E-14 1.03921100E+05 2.09978249E+00                   4
CH3OH                   C   1H   4O   1     G 200.000   6000.000   1000.000    1
 3.52726795E+00 1.03178783E-02-3.62892944E-06 5.77448016E-10-3.42182632E-14    2
-2.60028834E+04 5.16758693E+00 5.65851051E+00-1.62983419E-02 6.91938156E-05    3
-7.58372926E-08 2.80427550E-11-2.56119736E+04-8.97330508E-01                   4
CH3O                    C   1H   3O   1     G 200.000   6000.000   1000.000    1
 4.75779238E+00 7.44142474E-03-2.69705176E-06 4.38090504E-10-2.63537098E-14    2
 3.78111940E+02-1.96680028E+00 3.71180502E+00-2.80463306E-03 3.76550971E-05    3
-4.73072089E-08 1.86588420E-11 1.29569760E+03 6.57240864E+00                   4
CH2OH                   C   1H   3O   1     G 200.000   6000.000   1000.000    1
 5.09314370E+00 5.94761260E-03-2.06497460E-06 3.23008173E-10-1.88125902E-14    2
-4.03409640E+03-1.84691493E+00 4.47834367E+00-1.35070310E-03 2.78484980E-05    3
-3.64869060E-08 1.47907450E-11-3.50072890E+03 3.30913500E+00                   4
HOCHO                   C   1H   2O   2     G 200.000   6000.000   1000.000    1
 4.61383160E+00 6.44963640E-03-2.29082510E-06 3.67160470E-10-2.18736750E-14    2
-4.75148500E+04 8.47883830E-01 3.89836160E+00-3.55877950E-03 3.55205380E-05    3
-4.38499590E-08 1.71077690E-11-4.67706090E+04 7.34953970E+00                   4
OCHO                    C   1H   1O   2     G 200.000   6000.000   1000.000    1
 4.14394211E+00 5.59738818E-03-1.99794019E-06 3.16179193E-10-1.85614483E-14    2
-1.72459887E+04 5.07778617E+00 4.68825921E+00-4.14871834E-03 2.55066010E-05    3
-2.84473900E-08 1.04422559E-11-1.69867041E+04 4.28426480E+00                   4
CH2O                    C   1H   2O   1     G 200.000   6000.000   1000.000    1
 3.16952665E+00 6.19320560E-03-2.25056366E-06 3.65975660E-10-2.20149458E-14    2
-1.45486831E+04 6.04207898E+00 4.79372312E+00-9.90833322E-03 3.73219990E-05    3
-3.79285237E-08 1.31772641E-11-1.43791953E+04 6.02798058E-01                   4
HCO                     C   1H   1O   1     G 200.000   6000.000   1000.000    1
 3.92001542E+00 2.52279324E-03-6.71004164E-07 1.05615948E-10-7.43798261E-15    2
 3.65342928E+03 3.58077056E+00 4.23754610E+00-3.32075257E-03 1.40030264E-05    3
-1.34239995E-08 4.37416208E-12 3.87241185E+03 3.30834869E+00                   4
HCOH                    C   1H   2O   1     G 300.000   5000.000   1398.000    1
 9.18749272E+00 1.52011152E-03-6.27603516E-07 1.09727989E-10-6.89655128E-15    2
 7.81364593E+03-2.73434214E+01-2.82157421E+00 3.57331702E-02-3.80861580E-05    3
 1.86205951E-08-3.45957838E-12 1.12956672E+04 3.48487757E+01                   4
C2H5O2                  C   2H   5O   2     G 200.000   3000.000   1000.000    1
 4.70243558E+00 2.19598579E-02-1.10333734E-05 2.67891041E-09-2.55189141E-13    2
-5.42484554E+03 3.53031116E+00 5.41024375E+00-6.93942023E-04 6.35336439E-05    3
-8.37841039E-08 3.35867996E-11-4.81407036E+03 4.37174436E+00                   4
C2H6                    C   2H   6          G 200.000   6000.000   1000.000    1
 4.04666411E+00 1.53538802E-02-5.47039485E-06 8.77826544E-10-5.23167531E-14    2
-1.24473499E+04-9.68698313E-01 4.29142572E+00-5.50154901E-03 5.99438458E-05    3
-7.08466469E-08 2.68685836E-11-1.15222056E+04 2.66678994E+00                   4
C2H5                    C   2H   5          G 300.000   3500.000   700.000     1
-1.10489358E+00 2.43511913E-02-1.39613152E-05 3.89870297E-09-4.17285120E-13    2
 1.35030749E+04 3.00146907E+01 4.99501831E+00-1.05054480E-02 6.07314834E-05    3
-6.72372957E-08 2.49884287E-11 1.26490872E+04 2.76182763E+00                   4
CHOCHO                  C   2H   2O   2     G 300.000   5000.000   1386.000    1
 9.75438561E+00 4.97645947E-03-1.74410483E-06 2.75586994E-10-1.61969892E-14    2
-2.95832896E+04-2.61878329E+01 1.88105120E+00 2.36386368E-02-1.83443295E-05    3
 6.84842963E-09-9.92733674E-13-2.69280190E+04 1.59154793E+01                   4
C2H3OOH                 C   2H   4O   2     G 300.000   5000.000   1397.000    1
 1.15749951E+01 8.09909174E-03-2.81808668E-06 4.42697954E-10-2.58998042E-14    2
-8.84852664E+03-3.43859117E+01 1.35644398E+00 3.37002447E-02-2.75988500E-05    3
 1.14222854E-08-1.89488886E-12-5.49996692E+03 1.98354466E+01                   4
CHCHO                   C   2H   2O   1     G 298.150   2000.000   1000.000    1
 4.92632910E+00 9.71712147E-03-5.54855980E-06 1.53068537E-09-1.64742462E-13    2
 2.89499494E+04 5.27874677E-01 2.33256751E+00 1.62952986E-02-9.72052177E-06    3
 5.15124155E-10 1.03836514E-12 2.96585452E+04 1.39904923E+01                   4
C2H4                    C   2H   4          G 200.000   3000.000   1000.000    1
 1.60864693E+00 1.50609034E-02-7.03415503E-06 1.60473454E-09-1.45035207E-13    2
 5.03481778E+03 1.26522651E+01 4.24760731E+00-9.92694869E-03 6.13390131E-05    3
-7.26431229E-08 2.80785458E-11 5.01597556E+03 2.91763124E+00                   4
C2H3                    C   2H   3          G 200.000   3000.000   1000.000    1
 2.94703852E+00 1.03773732E-02-4.78133396E-06 1.07695608E-09-9.62134934E-14    2
 3.43648997E+04 8.16989635E+00 3.14512897E+00 2.28305573E-03 2.37921410E-05    3
-3.37614846E-08 1.40649792E-11 3.45668480E+04 8.68163141E+00                   4
C2O                     C   2O   1          G 200.000   6000.000   1000.000    1
 5.42468378E+00 1.85393945E-03-5.17932956E-07 6.77646230E-11-3.53315237E-15    2
 4.37161379E+04-3.69608405E+00 2.86278214E+00 1.19701204E-02-1.80851222E-05    3
 1.52777730E-08-5.20063163E-12 4.43125964E+04 8.89759099E+00                   4
C2H2                    C   2H   2          G 200.000   6000.000   1000.000    1
 4.65878489E+00 4.88396667E-03-1.60828888E-06 2.46974544E-10-1.38605959E-14    2
 2.57594042E+04-3.99838194E+00 8.08679682E-01 2.33615762E-02-3.55172234E-05    3
 2.80152958E-08-8.50075165E-12 2.64289808E+04 1.39396761E+01                   4
C2H                     C   2H   1          G 200.000   6000.000   1000.000    1
 3.66270248E+00 3.82492252E-03-1.36632500E-06 2.13455040E-10-1.23216848E-14    2
 6.71683790E+04 3.92205792E+00 2.89867676E+00 1.32988489E-02-2.80733327E-05    3
 2.89484755E-08-1.07502351E-11 6.70616050E+04 6.18547632E+00                   4
H2CC                    C   2H   2          G 200.000   6000.000   1000.000    1
 4.27803400E+00 4.75628040E-03-1.63010090E-06 2.54628060E-10-1.48863790E-14    2
 4.83166880E+04 6.40237010E-01 3.28154830E+00 6.97647910E-03-2.38552440E-06    3
-1.21044320E-09 9.81895450E-13 4.86217940E+04 5.92039100E+00                   4
C2H4O2H                 C   2H   5O   2     G 200.000   3000.000   1000.000    1
 6.78041359E+00 1.83275444E-02-8.91431995E-06 2.10717647E-09-1.96409650E-13    2
 3.29131978E+03-4.72895313E+00 7.21049238E+00-8.05223553E-04 5.64608626E-05    3
-7.53070591E-08 3.05453325E-11 3.84110790E+03-3.13534586E+00                   4
C2H4O1-2                C   2H   4O   1     G 200.000   6000.000   1000.000    1
 5.48876410E+00 1.20461900E-02-4.33369310E-06 7.00283110E-10-4.19490880E-14    2
-9.18042510E+03-7.07996050E+00 3.75905320E+00-9.44121800E-03 8.03097210E-05    3
-1.00807880E-07 4.00399210E-11-7.56081430E+03 7.84974750E+00                   4
C2H3O1-2                C   2H   3O   1     G 200.000   6000.000   1000.000    1
 5.60158035E+00 9.17613962E-03-3.28028902E-06 5.27903888E-10-3.15362241E-14    2
 1.71446252E+04-5.47228512E+00 3.58349017E+00-6.02275805E-03 6.32426867E-05    3
-8.18540707E-08 3.30444505E-11 1.85681353E+04 9.59725926E+00                   4
C2H5OH                  C   2H   6O   1     G 300.000   5000.000   1402.000    1
 8.14483865E+00 1.28314052E-02-4.29052743E-06 6.55971721E-10-3.76506611E-14    2
-3.24005526E+04-1.86241126E+01 2.15805861E-01 2.95228396E-02-1.68271048E-05    3
 4.49484797E-09-4.02451543E-13-2.94851823E+04 2.45725052E+01                   4
C2H5O                   C   2H   5O   1     G 300.000   5000.000   1467.000    1
 8.19120635E+00 1.10391986E-02-3.75270536E-06 5.80275784E-10-3.35735146E-14    2
-5.66847208E+03-1.90131344E+01 2.90353584E+00 1.77256708E-02-2.69624757E-06    3
-3.45830533E-09 1.25224784E-12-3.28930290E+03 1.13545591E+01                   4
PC2H4OH                 C   2H   5O   1     G 200.000   6000.000   1000.000    1
 7.01348674E+00 1.20204391E-02-4.21992012E-06 6.70675981E-10-3.97135273E-14    2
-6.16161779E+03-8.62052409E+00 4.20954137E+00 9.12964578E-03 2.47462263E-05    3
-3.92945764E-08 1.66541312E-11-4.91511371E+03 8.30445413E+00                   4
SC2H4OH                 C   2H   5O   1     G 300.000   5000.000   1385.000    1
 8.15007136E+00 1.02549305E-02-3.40137764E-06 5.17509965E-10-2.96128942E-14    2
-1.05014386E+04-1.73134615E+01 1.46281093E+00 2.39193995E-02-1.30667185E-05    3
 3.10615465E-09-1.85896007E-13-8.00790323E+03 1.92547092E+01                   4
O2CH2CHO                C   2H   3O   3     G 300.000   5000.000   1393.000    1
 1.11807543E+01 9.14479256E-03-3.15089833E-06 4.91944238E-10-2.86639180E-14    2
-1.55790331E+04-2.87892740E+01-1.29465843E+00 4.44936393E-02-4.26577074E-05    3
 2.07391950E-08-3.96828771E-12-1.18275628E+04 3.60778797E+01                   4
HO2CH2CO                C   2H   3O   3     G 300.000   5000.000   1386.000    1
 1.04146322E+01 1.12680116E-02-5.17494839E-06 1.00333285E-09-6.68165911E-14    2
-1.40955672E+04-2.27894400E+01 2.22681686E+00 3.56781380E-02-3.26401909E-05    3
 1.47651988E-08-2.64794380E-12-1.18735095E+04 1.91581197E+01                   4
CH2CO2                  C   2H   2O   2     G 300.000   5000.000   1000.000    1
 7.65364625E+00 8.11459788E-03-3.27402215E-06 6.04725280E-10-4.19318185E-14    2
-2.47039852E+03-1.29488037E+01 1.58410663E+00 2.55753337E-02-1.92389918E-05    3
 4.43061572E-09 7.05951245E-13-9.15619463E+02 1.80375721E+01                   4
CH3CHO                  C   2H   4O   1     G 200.000   6000.000   1000.000    1
 5.40411080E+00 1.17230590E-02-4.22631370E-06 6.83724510E-10-4.09848630E-14    2
-2.25931220E+04-3.48079170E+00 4.72945950E+00-3.19328580E-03 4.75349210E-05    3
-5.74586110E-08 2.19311120E-11-2.15728780E+04 4.10301590E+00                   4
CH3CO                   C   2H   3O   1     G 200.000   6000.000   1000.000    1
 5.31371650E+00 9.17377930E-03-3.32203860E-06 5.39474560E-10-3.24523680E-14    2
-3.64504140E+03-1.67575580E+00 4.03587050E+00 8.77294870E-04 3.07100100E-05    3
-3.92475650E-08 1.52968690E-11-2.68207380E+03 7.86176820E+00                   4
CH2CHO                  C   2H   3O   1     G 298.000   3000.000   1000.000    1
 3.63026330E+00 1.41239404E-02-7.16478146E-06 1.76263004E-09-1.70391996E-13    2
 4.29875072E+02 6.20577997E+00 9.86311004E-01 2.24920216E-02-1.64812936E-05    3
 5.86617239E-09-6.81551147E-13 1.07163704E+03 1.95196726E+01                   4
C2H3OH                  C   2H   4O   1     G 300.000   5000.000   1410.000    1
 8.32598158E+00 8.03387281E-03-2.63928405E-06 3.98410726E-10-2.26551155E-14    2
-1.83221436E+04-2.02080305E+01-1.27972260E-01 3.38506073E-02-3.30644935E-05    3
 1.64858739E-08-3.19935455E-12-1.59914544E+04 2.30438601E+01                   4
CH2CO                   C   2H   2O   1     G 300.000   5000.000   1387.000    1
 6.36467030E+00 5.45786699E-03-1.84268576E-06 2.83411786E-10-1.63298616E-14    2
-8.24720912E+03-9.42955479E+00 4.99492822E+00 7.27504908E-03-2.16744674E-06    3
-9.25637041E-11 1.12646950E-13-7.59099666E+03-1.51259007E+00                   4
HCCO                    C   2H   1O   1     G 200.000   6000.000   1000.000    1
 5.91479333E+00 3.71408730E-03-1.30137010E-06 2.06473345E-10-1.21476759E-14    2
 1.93596301E+04-5.50567269E+00 1.87607969E+00 2.21205418E-02-3.58869325E-05    3
 3.05402541E-08-1.01281069E-11 2.01633840E+04 1.36968290E+01                   4
HCCOH                   C   2H   2O   1     G 200.000   6000.000   1000.000    1
 6.37509678E+00 5.49429011E-03-1.88136576E-06 2.93803536E-10-1.71771901E-14    2
 8.93277676E+03-8.24498007E+00 2.05541154E+00 2.52003372E-02-3.80821654E-05    3
 3.09890632E-08-9.89799902E-12 9.76872113E+03 1.22271534E+01                   4
CH3CCO                  C   3H   3O   1     G 100.000   5000.000   450.610     1
 4.07733162E+00 1.56711833E-02-6.97158858E-06 1.31787764E-09-9.17660519E-14    2
 1.95006394E+04 7.83646777E+00 3.34387132E+00 1.74325291E-02 2.97569379E-06    3
-3.67906168E-08 3.40290463E-11 1.96149582E+04 1.13253443E+01                   4
CH3OCO                  C   2H   3O   2     G 298.000   3000.000   1000.000    1
 3.36304128E+00 1.87670995E-02-1.03048118E-05 2.67955225E-09-2.69524760E-13    2
-2.08317053E+04 1.09017923E+01 4.20427121E+00 8.77414983E-03 1.52020481E-05    3
-2.17223880E-08 7.77727542E-12-2.06876220E+04 8.45258172E+00                   4
NC3H7O2                 C   3H   7O   2     G 200.000   3000.000   1000.000    1
 4.91998559E+00 3.15132726E-02-1.58821725E-05 3.86554476E-09-3.68943114E-13    2
-8.25948108E+03 4.98449512E+00 5.47042383E+00 8.03725792E-03 6.23369337E-05    3
-8.69404455E-08 3.51435174E-11-7.54594190E+03 6.93921239E+00                   4
NC3H7CO                 C   4H   7O   1     G 300.000   5000.000   2009.000    1
 1.12985564E+01 1.88433093E-02-6.47020269E-06 1.01213996E-09-5.91651286E-14    2
-1.11491841E+04-3.00451398E+01 2.55036037E+00 3.66123221E-02-1.83363150E-05    3
 3.78113452E-09-1.51825816E-13-8.03077767E+03 1.76299131E+01                   4
C3H6OOH1-2              C   3H   7O   2     G 200.000   3000.000   1000.000    1
 6.50699060E+00 2.85213018E-02-1.41417909E-05 3.39938293E-09-3.21373645E-13    2
-1.45012873E+03-1.87717582E-01 6.34979532E+00 8.11708872E-03 5.94055730E-05    3
-8.44703358E-08 3.45623896E-11-6.15937814E+02 5.09764555E+00                   4
C3H6OOH1-3              C   3H   7O   2     G 200.000   3000.000   1000.000    1
 7.23126530E+00 2.77429810E-02-1.37595857E-05 3.30768532E-09-3.12714680E-13    2
-4.43242263E+02-5.41152147E+00 5.50078943E+00 1.50499925E-02 4.54145213E-05    3
-7.25615652E-08 3.08058933E-11 6.52616591E+02 7.15821560E+00                   4
C3H6OOH1-3O2            C   3H   7O   4     G 200.000   3000.000   1000.000    1
 1.26078890E+01 2.93092235E-02-1.50840750E-05 3.73118698E-09-3.60788937E-13    2
-1.96011992E+04-3.08301000E+01 7.24781475E+00 3.28928441E-02 1.30495909E-05    3
-4.36381462E-08 2.06513320E-11-1.77709148E+04-9.17725040E-01                   4
C3KET13                 C   3H   6O   3     G 200.000   3000.000   1000.000    1
 8.58106638E+00 2.73143185E-02-1.39521051E-05 3.42955156E-09-3.29871443E-13    2
-3.47726042E+04-1.11674324E+01 7.59820874E+00 2.30624183E-02 6.90840670E-06    3
-2.23357702E-08 9.80969635E-12-3.42038835E+04-4.50289938E+00                   4
C3H6O1-2                C   3H   6O   1     G 200.000   6000.000   1000.000    1
 8.01491079E+00 1.73919953E-02-6.26027968E-06 1.01188256E-09-6.06239111E-14    2
-1.51980838E+04-1.88279964E+01 3.42806676E+00 6.25176642E-03 6.13196311E-05    3
-8.60387185E-08 3.51371393E-11-1.28446646E+04 1.04244994E+01                   4
C3H6O1-3                C   3H   6O   1     G 200.000   6000.000   1000.000    1
 6.80716906E+00 1.88824545E-02-6.79082475E-06 1.09713919E-09-6.57154952E-14    2
-1.36547629E+04-1.35382154E+01 5.15283752E+00-1.86401716E-02 1.29980652E-04    3
-1.58629974E-07 6.20668783E-11-1.13243512E+04 4.73561224E+00                   4
OCHCH2CH2O              C   3H   5O   2     G 298.000   6000.000   1000.000    1