ELEMENTS  C  H  N  O  AR  HE  END                                               
SPECIES
H       H2      O       O2      OH      H2O     N2      HO2     H2O2    AR      
CO      CO2     CH2O    HCO     HE
CH4		C2H6

END
THERMO ALL
   300.000  1000.000  5000.000
H                       H   1    0    0    0G    300.00   5000.00 1000.00    0 1
 2.50000000E+00 0.00000000E+00 0.00000000E+00 0.00000000E+00 0.00000000E+00    2
 2.54716300E+04-4.60117600E-01 2.50000000E+00 0.00000000E+00 0.00000000E+00    3
 0.00000000E+00 0.00000000E+00 2.54716300E+04-4.60117600E-01                   4
H2                      H   2    0    0    0G    300.00   5000.00 1000.00    0 1
 2.99142300E+00 7.00064400E-04-5.63382900E-08-9.23157800E-12 1.58275200E-15    2
-8.35034000E+02-1.35511000E+00 3.29812400E+00 8.24944200E-04-8.14301500E-07    3
-9.47543400E-11 4.13487200E-13-1.01252100E+03-3.29409400E+00                   4
O                       O   1    0    0    0G    300.00   5000.00 1000.00    0 1
 2.54206000E+00-2.75506200E-05-3.10280300E-09 4.55106700E-12-4.36805200E-16    2
 2.92308000E+04 4.92030800E+00 2.94642900E+00-1.63816600E-03 2.42103200E-06    3
-1.60284300E-09 3.89069600E-13 2.91476400E+04 2.96399500E+00                   4
O2                      O   2    0    0    0G    300.00   5000.00 1000.00    0 1
 3.69757800E+00 6.13519700E-04-1.25884200E-07 1.77528100E-11-1.13643500E-15    2
-1.23393000E+03 3.18916600E+00 3.21293600E+00 1.12748600E-03-5.75615000E-07    3
 1.31387700E-09-8.76855400E-13-1.00524900E+03 6.03473800E+00                   4
OH                      H   1O   1    0    0G    300.00   5000.00 1710.00    0 1
 2.85376040E+00 1.02994334E-03-2.32666477E-07 1.93750704E-11-3.15759847E-16    2
 3.69949720E+03 5.78756825E+00 3.41896226E+00 3.19255801E-04-3.08292717E-07    3
 3.64407494E-10-1.00195479E-13 3.45264448E+03 2.54433372E+00                   4
H2O                     H   2O   1    0    0G    300.00   5000.00 1000.00    0 1
 2.67214600E+00 3.05629300E-03-8.73026000E-07 1.20099600E-10-6.39161800E-15    2
-2.98992100E+04 6.86281700E+00 3.38684200E+00 3.47498200E-03-6.35469600E-06    3
 6.96858100E-09-2.50658800E-12-3.02081100E+04 2.59023300E+00                   4
N2                      N   2    0    0    0G    300.00   5000.00 1000.00    0 1
 2.92664000E+00 1.48797700E-03-5.68476100E-07 1.00970400E-10-6.75335100E-15    2
-9.22797700E+02 5.98052800E+00 3.29867700E+00 1.40824000E-03-3.96322200E-06    3
 5.64151500E-09-2.44485500E-12-1.02090000E+03 3.95037200E+00                   4
HO2                     H   1O   2    0    0G    200.00   3500.00 1000.00    0 1
 4.01721090E+00 2.23982013E-03-6.33658150E-07 1.14246370E-10-1.07908535E-14    2
 1.11856713E+02 3.78510215E+00 4.30179801E+00-4.74912051E-03 2.11582891E-05    3
-2.42763894E-08 9.29225124E-12 2.94808040E+02 3.71666245E+00                   4
H2O2                    H   2O   2    0    0G    300.00   5000.00 1000.00    0 1
 4.57316700E+00 4.33613600E-03-1.47468900E-06 2.34890400E-10-1.43165400E-14    2
-1.80069600E+04 5.01137000E-01 3.38875400E+00 6.56922600E-03-1.48501300E-07    3
-4.62580600E-09 2.47151500E-12-1.76631500E+04 6.78536300E+00                   4
AR                      AR  1    0    0    0G    300.00   5000.00 1000.00    0 1
 2.50000000E+00 0.00000000E+00 0.00000000E+00 0.00000000E+00 0.00000000E+00    2
-7.45375000E+02 4.36600100E+00 2.50000000E+00 0.00000000E+00 0.00000000E+00    3
 0.00000000E+00 0.00000000E+00-7.45375000E+02 4.36600100E+00                   4
CO                      C   1O   1    0    0G    300.00   5000.00 1429.00    0 1
 3.11216890E+00 1.15948283E-03-3.38480362E-07 4.41403098E-11-2.12862228E-15    2
-1.42718539E+04 5.71725177E+00 3.19036352E+00 8.94419972E-04-3.24927563E-08    3
-1.04599967E-10 2.41965693E-14-1.42869054E+04 5.33277914E+00                   4
CO2                     C   1O   2    0    0G    300.00   5000.00 1380.00    0 1
 5.18953018E+00 2.06006476E-03-7.33575324E-07 1.17004374E-10-6.91729215E-15    2
-4.93178953E+04-5.18289303E+00 2.57930490E+00 8.24684987E-03-6.42716047E-06    3
 2.54637024E-09-4.12030443E-13-4.84162830E+04 8.81141041E+00                   4
CH2O                    C   1H   2O   1    0G    300.00   5000.00 1486.00    0 1
 4.02068394E+00 5.09903417E-03-1.76430480E-06 2.76025879E-10-1.60998042E-14    2
-1.49287258E+04 1.06525547E+00 3.00754197E+00 3.04729496E-03 5.25109246E-06    3
-5.12019281E-09 1.27133795E-12-1.41188397E+04 8.10120233E+00                   4
HCO                     C   1H   1O   1    0G    300.00   5000.00 1690.00    0 1
 3.44148164E+00 3.52157719E-03-1.24136118E-06 1.97328644E-10-1.16538616E-14    2
 3.97409684E+03 6.24593456E+00 3.81049965E+00 8.13269825E-04 3.13164701E-06    3
-2.39478268E-09 5.06894554E-13 4.03859901E+03 4.94843165E+00                   4
CH4       29/11/04      H   4C   1    0    0G   300.000  5000.000 1462.000     1
 4.09617653E+00 7.44330845E-03-2.63871900E-06 4.19577604E-10-2.47508050E-14    2
-1.13835704E+04-4.67561383E+00 3.72113020E+00-2.50293289E-03 1.90246534E-05    3
-1.46871253E-08 3.43791152E-12-1.01424099E+04 1.22776596E+00                   4
C2H6       8/ 4/ 4 THERMC   2H   6    0    0G   300.000  5000.000 1383.000    11
 6.05972630E+00 1.30382837E-02-4.48103942E-06 6.97762095E-10-4.05606353E-14    2
-1.35751226E+04-1.28608001E+01 4.78623203E-02 2.40569127E-02-1.15155912E-05    3
 2.48666238E-09-1.78343944E-13-1.10923014E+04 2.06544071E+01                   4
HE                      HE  1    0    0    0G    300.00   5000.00 1000.00    0 1
 2.50000000E+00 0.00000000E+00 0.00000000E+00 0.00000000E+00 0.00000000E+00    2
-7.45375000E+02 9.15348900E-01 2.50000000E+00 0.00000000E+00 0.00000000E+00    3
 0.00000000E+00 0.00000000E+00-7.45375000E+02 9.15348800E-01                   4
END

REACTIONS   MOLES  KELVINS                                                      
!     1                                                        
H+O2<=>O+OH                    3.547E+15     -0.4060    8354.30
REV                  /         1.027E+13       -0.01     -66.94      /
!     2                                                        
O+H2<=>H+OH                    5.080E+04      2.6700    3166.58
REV                  /         2.637E+04        2.65    2455.96      /
!     3                                                        
OH+H2<=>H+H2O                  2.160E+08      1.5100    1726.22
REV                  /         2.290E+09        1.40    9219.93      /
!     4                                                        
O+H2O<=>2OH                    2.970E+06      2.0200    6743.84
REV                  /         1.454E+05        2.11   -1461.50      /
!     5                                                        
H2+M<=>2H+M                    4.577E+19     -1.4000   52541.52
REV                  /         1.145E+20       -1.68     412.68      /
H2/2.5/ H2O/12/ CO/1.9/ CO2/3.8/                               
!     6                                                        
O2+M<=>2O+M                    4.420E+17     -0.6340   59838.96
REV                  /         6.165E+15       -0.50       0.00      /
H2/2.5/ H2O/12/ AR/0.83/ CO/1.9/ CO2/3.8/ CH4/2/ C2H6/3/ HE/0.83/
!     7                                                        
OH+M<=>O+H+M                   9.780E+17     -0.7430   51384.00
REV                  /         4.714E+18       -1.00       0.00      /
H2/2.5/ H2O/12/ AR/0.75/ CO/1.5/ CO2/2/ CH4/2/ C2H6/3/ HE/0.75/
!     8                                                        
H2O+M<=>H+OH+M                 1.907E+23     -1.8300   59637.65
REV                  /         4.500E+22       -2.00       0.00      /
H2/0.73/ H2O/12/ AR/0.38/ CH4/2/ C2H6/3/ HE/0.38/              
!     9                                                        
H+O2(+M)<=>HO2(+M)             1.475E+12      0.6000       0.00
LOW                  /         3.482E+16       -0.41    -561.15      /
troe                 /        5.0000E-01  1.0000E-30 1.0000E+30 1.0000E+10 /
H2/1.3/ H2O/14/ AR/0.67/ CO/1.9/ CO2/3.8/ CH4/2/ C2H6/3/ HE/0.67/
!    10                                                        
HO2+H<=>H2+O2                  1.660E+13      0.0000     414.19
REV                  /         3.166E+12        0.35   27936.59      /
!    11                                                        
HO2+H<=>2OH                    7.079E+13      0.0000     148.47
REV                  /         2.028E+10        0.72   18540.51      /
!    12                                                        
HO2+O<=>OH+O2                  3.250E+13      0.0000       0.00
REV                  /         3.217E+12        0.33   26814.29      /
!    13                                                        
HO2+OH<=>H2O+O2                2.890E+13      0.0000    -250.13
REV                  /         5.844E+13        0.24   34765.98      /
!    14                                                        
H2O2+O2<=>2HO2                 1.136E+16     -0.3470   25027.68
REV                  /         1.030E+14        0.00    5556.11      /
DUPLICATE                                                      
!    15                                                        
H2O2+O2<=>2HO2                 2.141E+13     -0.3470   18761.95
REV                  /         1.940E+11        0.00    -709.11      /
DUPLICATE                                                      
!    16                                                        
H2O2(+M)<=>2OH(+M)             2.951E+14      0.0000   24373.43
LOW                  /         1.202E+17        0.00   22898.84      /
troe                 /        5.0000E-01  1.0000E-30 1.0000E+30 1.0000E+10 /
H2/2.5/ H2O/12/ AR/0.64/ CO/1.9/ CO2/3.8/ CH4/2/ C2H6/3/ HE/0.64/
!    17                                                        
H2O2+H<=>H2O+OH                2.410E+13      0.0000    1997.99
REV                  /         1.265E+08        1.31   35938.60      /
!    18                                                        
H2O2+H<=>H2+HO2                2.150E+10      1.0000    3019.63
REV                  /         3.716E+07        1.70   11071.97      /
!    19                                                        
H2O2+O<=>OH+HO2                9.550E+06      2.0000    1997.99
REV                  /         8.568E+03        2.68    9340.71      /
!    20                                                        
H2O2+OH<=>H2O+HO2              2.000E+12      0.0000     215.00
REV                  /         3.665E+10        0.59   15762.46      /
DUPLICATE                                                      
!    21                                                        
H2O2+OH<=>H2O+HO2              1.700E+18      0.0000   14801.21
REV                  /         3.115E+16        0.59   30347.26      /
DUPLICATE                                                      
!    22                                                        
CO+O(+M)<=>CO2(+M)             1.800E+10      0.0000    1199.80
LOW                  /         1.350E+24       -2.79    2109.21      /
H2/2/ O2/6/ H2O/6/ AR/0.5/ CO/1.5/ CO2/3.5/ CH4/2/ C2H6/3/ HE/0.5/
!    23                                                        
CO+O2<=>CO2+O                  1.050E+12      0.0000   21409.16
REV                  /         8.035E+15       -0.80   25782.59      /
!    24                                                        
CO+OH<=>CO2+H                  1.784E+05      1.8900    -582.79
REV                  /         4.717E+11        0.70   12209.36      /
!    25                                                        
CO+HO2<=>CO2+OH                1.570E+05      2.1800    9028.69
REV                  /         1.189E+08        1.71   40216.41      /
!    26                                                        
HCO+M<=>H+CO+M                 4.750E+11      0.6600    7483.64
REV                  /         3.582E+10        1.04    -230.15      /
H2/2/ H2O/12/ CO/1.5/ CO2/2/ CH4/2/ C2H6/3/                    
!    27                                                        
HCO+O2<=>CO+HO2                7.580E+12      0.0000     206.34
REV                  /         1.198E+12        0.31   17086.06      /
!    28                                                        
HCO+H<=>CO+H2                  7.340E+13      0.0000       0.00
REV                  /         2.212E+12        0.66   44403.63      /
!    29                                                        
HCO+O<=>CO+OH                  3.020E+13      0.0000       0.00
REV                  /         4.725E+11        0.64   43694.01      /
!    30                                                        
HCO+O<=>CO2+H                  3.000E+13      0.0000       0.00
REV                  /         1.241E+18       -0.55   56467.04      /
!    31                                                        
HCO+OH<=>CO+H2O                1.020E+14      0.0000       0.00
REV                  /         3.259E+13        0.55   51887.27      /
!    33                                                        
HCO+HO2<=>CH2O+O2              2.499E+14     -0.0610    7005.54
REV                  /         8.070E+15        0.00   26884.75      /
!    34                                                        
HCO+HO2<=>CO2+H+OH             3.000E+13      0.0000       0.00
REV                  /         0.000E+00        0.00       0.00      /
!    36                                                        
CH2O+CO<=>2HCO                 9.186E+13      0.3700   36758.93
REV                  /         1.800E+13        0.00       0.00      /
!    37                                                        
2HCO<=>H2+2CO                  3.000E+12      0.0000       0.00
REV                  /         0.000E+00        0.00       0.00      /
!    38                                                        
HCO+H(+M)<=>CH2O(+M)           1.090E+12      0.4800    -130.85
LOW                  /         1.350E+24       -2.57     717.16      /
troe                 /        7.8240E-01  2.7100E+02 2.7550E+03 6.5700E+03 /
H2/2/ H2O/6/ AR/0.7/ CO/1.5/ CO2/2/ CH4/2/ C2H6/3/ HE/0.7/     
!    39                                                        
CO+H2(+M)<=>CH2O(+M)           4.300E+07      1.5000   40060.39
LOW                  /         5.070E+27       -3.42   42449.93      /
troe                 /        9.3200E-01  1.9700E+02 1.5400E+03 1.0300E+04 /
H2/2/ H2O/6/ AR/0.7/ CO/1.5/ CO2/2/ CH4/2/ C2H6/3/ HE/0.7/     
!    40                                                        
CH2O+OH<=>HCO+H2O              7.820E+07      1.6300    -530.95
REV                  /         4.896E+06        1.81   14609.97      /
!    41                                                        
CH2O+H<=>HCO+H2                5.740E+07      1.9000    1378.96
REV                  /         3.390E+05        2.19    9023.65      /
!    42                                                        
CH2O+O<=>HCO+OH                6.260E+09      1.1500    1137.39
REV                  /         1.919E+07        1.42    8072.47      /
!    44                                                        
CH2O+HO2<=>HCO+H2O2            7.100E-03      4.5170    3311.53
REV                  /         2.426E-02        4.11    2903.37      /
END