THERMO ALL
   300.000  1000.000  5000.000
HE                      HE  1    0    0    0G    300.00   5000.00 1000.00    0 1
 2.50000000E+00 0.00000000E+00 0.00000000E+00 0.00000000E+00 0.00000000E+00    2
-7.45375000E+02 9.28723974E-01 2.50000000E+00 0.00000000E+00 0.00000000E+00    3
 0.00000000E+00 0.00000000E+00-7.45375000E+02 9.28723974E-01                   4
AR                      AR  1    0    0    0G    300.00   5000.00 1000.00    0 1
 3.12500009E+00-1.40625050E-03 9.37500490E-07-1.56250080E-10 0.00000000E+00    2
-9.40687583E+02 1.03823694E+00 2.50000000E+00 0.00000000E+00 0.00000000E+00    3
 0.00000000E+00 0.00000000E+00-7.45375100E+02 4.36600100E+00                   4
N2                      N   2    0    0    0G    300.00   5000.00 1000.00    0 1
 2.92663788E+00 1.48797700E-03-5.68476030E-07 1.00970400E-10-6.75335090E-15    2
-9.22795384E+02 5.98054018E+00 3.29867700E+00 1.40823990E-03-3.96322180E-06    3
 5.64151480E-09-2.44485400E-12-1.02090000E+03 3.95037200E+00                   4
O2                      O   2    0    0    0G    300.00   5000.00 1000.00    0 1
 3.69757685E+00 6.13519690E-04-1.25884200E-07 1.77528100E-11-1.13643500E-15    2
-1.23392966E+03 3.18917125E+00 3.21293600E+00 1.12748610E-03-5.75614990E-07    3
 1.31387700E-09-8.76855390E-13-1.00524900E+03 6.03473900E+00                   4
H2                      H   2    0    0    0G    300.00   5000.00 1000.00    0 1
 2.99142220E+00 7.00064410E-04-5.63382800E-08-9.23157820E-12 1.58275200E-15    2
-8.35033546E+02-1.35510641E+00 3.29812400E+00 8.24944120E-04-8.14301470E-07    3
-9.47543430E-11 4.13487200E-13-1.01252100E+03-3.29409400E+00                   4
H2O                     H   2O   1    0    0G    300.00   5000.00 1000.00    0 1
 2.67214569E+00 3.05629290E-03-8.73026070E-07 1.20099600E-10-6.39161790E-15    2
-2.98992115E+04 6.86281125E+00 3.38684200E+00 3.47498200E-03-6.35469590E-06    3
 6.96858040E-09-2.50658800E-12-3.02081100E+04 2.59023200E+00                   4
H2O2                    H   2O   2    0    0G    300.00   5000.00 1000.00    0 1
 4.57316594E+00 4.33613590E-03-1.47468900E-06 2.34890300E-10-1.43165410E-14    2
-1.80069531E+04 5.01137915E-01 3.38875300E+00 6.56922580E-03-1.48501200E-07    3
-4.62580510E-09 2.47151410E-12-1.76631400E+04 6.78536300E+00                   4
CO                      C   1O   1    0    0G    300.00   5000.00 1000.00    0 1
 3.02507617E+00 1.44268900E-03-5.63082720E-07 1.01858100E-10-6.91095110E-15    2
-1.42683499E+04 6.10822521E+00 3.26245100E+00 1.51194100E-03-3.88175520E-06    3
 5.58194380E-09-2.47495100E-12-1.43105400E+04 4.84889700E+00                   4
CO2                     C   1O   2    0    0G    300.00   5000.00 1000.00    0 1
 4.45362582E+00 3.14016800E-03-1.27841100E-06 2.39399610E-10-1.66903300E-14    2
-4.89669524E+04-9.55420007E-01 2.27572400E+00 9.92207230E-03-1.04091100E-05    3
 6.86668590E-09-2.11728010E-12-4.83731400E+04 1.01884900E+01                   4
O                       O   1    0    0    0G    300.00   5000.00 1000.00    0 1
 2.54205876E+00-2.75506100E-05-3.10280290E-09 4.55106700E-12-4.36805100E-16    2
 2.92307989E+04 4.92030884E+00 2.94642800E+00-1.63816600E-03 2.42103100E-06    3
-1.60284300E-09 3.89069610E-13 2.91476400E+04 2.96399500E+00                   4
H                       H   1    0    0    0G    300.00   5000.00 1000.00    0 1
 2.50000000E+00 0.00000000E+00 0.00000000E+00 0.00000000E+00 0.00000000E+00    2
 2.54716200E+04-4.60117600E-01 2.50000000E+00 0.00000000E+00 0.00000000E+00    3
 0.00000000E+00 0.00000000E+00 2.54716200E+04-4.60117600E-01                   4
OH                      H   1O   1    0    0G    300.00   5000.00 1710.00    0 1
 2.85376040E+00 1.02994334E-03-2.32666477E-07 1.93750704E-11-3.15759847E-16    2
 3.69949720E+03 5.78756825E+00 3.41896226E+00 3.19255801E-04-3.08292717E-07    3
 3.64407494E-10-1.00195479E-13 3.45264448E+03 2.54433372E+00                   4
HO2                     H   1O   2    0    0G    300.00   5000.00 1000.00    0 1
 4.01721090E+00 2.23982013E-03-6.33658150E-07 1.14246370E-10-1.07908535E-14    2
 1.11856713E+02 3.78510215E+00 4.30179801E+00-4.74912051E-03 2.11582891E-05    3
-2.42763894E-08 9.29225124E-12 2.94808040E+02 3.71666245E+00                   4
HCO                     C   1H   1O   1    0G    300.00   5000.00 1000.00    0 1
 3.55727119E+00 3.34557190E-03-1.33500600E-06 2.47057210E-10-1.71385000E-14    2
 3.91632208E+03 5.55229973E+00 2.89832900E+00 6.19914620E-03-9.62308420E-06    3
 1.08982500E-08-4.57488520E-12 4.15992100E+03 8.98361500E+00                   4
OH*               ATcT AO   1H   1    0    0G   200.000  6000.000 1000.        1! Goos-Burcat-Ruscic-thermodatabase; Y. Tao 25.05.2012
 2.75582920E+00 1.39848756E-03-4.19428493E-07 6.33453282E-11-3.56042218E-15    2! OH A 2Sigma+ (excited)
 5.09751756E+04 5.62581429E+00 3.46084428E+00 5.01872172E-04-2.00254474E-06    3! CAS: 3352-57-6 (?)
 3.18901984E-09-1.35451838E-12 5.07349466E+04 1.73976415E+00                   4! Uncertainty unknown => -1.0
END
