!!!!!!!!!!!!!!!!!!!!!!!!!!!!!!!!!!!!!!!!!!!!!!!!!!!!!!!!!!!!!!!!!!!!!!!!!!!!!!!!!!!!!!!!
!                                                                                     !
!                   This CHEMKIN mechanism file is part of the                        !
!                           Supplemental Material for                                 !
!                                                                                     !
!      An updated experimental and kinetic modeling study of n-heptane oxidation      !
!                                                                                     !
!           Kuiwen Zhang 1, Colin Banyon 1, John Bugler 1, Henry J. Curran 1*         !
!            Anne Rodriguez,2 Olivier Herbinet,2 Fr   d   rique Battin-Leclerc2           !
!                        Christine B'Chir3, Karl Alexander Heufer3                    !
!                                                                                     !
!      1 School of Chemistry, National University of Ireland Galway, Ireland          !
!  2 Laboratoire R   actions et G   nie des Proc   d   s, CNRS, Universit    de Lorraine,       !
!          ENSIC, 1, rue Grandville, BP 20451, 54001 Nancy Cedex, France              !
!  3 Physico-Chemical Fundamentals of Combustion (PCFC), RWTH Aachen University,      !
!                          Schinkelstr. 8, 52062 Aachen                               !
!                                                                                     !
!!!!!!!!!!!!!!!!!!!!!!!!!!!!!!!!!!!!!!!!!!!!!!!!!!!!!!!!!!!!!!!!!!!!!!!!!!!!!!!!!!!!!!!
!++++++++++++++++++++++++++++++++++++++++++++++++++++++++++++++++++++++++++++++++++++++++++++++++++++++++++++++++++++++++++++++++++++++++++++++++++++++++++++++
!\END_SPECIES_LIST
!\START_KINETICS_INPUT
ELEMENTS
C H N O AR 
HE 
END
SPECIES
N2 HE H2 H O2 
O H2O OH OHV H2O2 
HO2 CO CO2 HOCO CH4 
CH3 CH2 CH2(S) C CH 
CHV CH3O2H CH3O2 CH2O2H CH3OH 
CH3O CH2OH CH2O HCO HCOH 
HO2CHO HOCH2O O2CHO HOCHO OCHO 
C2H6 C2H5 C2H5O2H C2H5O2 C2H4 
C2H3 CHOCHO C2H3OOH C2H3OO CHCHO 
C2H2 C2H H2CC C2H5OH C2H5O 
PC2H4OH SC2H4OH O2C2H4OH C2H4O2H C2H4O1-2 
C2H3O1-2 CH3CHO CH3CO CH2CHO O2CH2CHO 
HO2CH2CO C2H3OH C2H2OH CH2CO HCCO 
HCCOH CH3CO3H CH3CO3 CH3CO2 CH3OCH3 
CH3OCH2 C3H8 IC3H7 NC3H7 NC3H7O2H 
NC3H7O2 IC3H7O2 NC3H7O IC3H7O C3H6OOH1-2 
C3H6OOH1-3 C3H6OOH2-1 C3H6OOH1-2O2 C3H6OOH1-3O2 C3H6OOH2-1O2 
C3KET12 C3KET13 C3H51-2,3OOH C3H52-1,3OOH C3H5O1-2OOH-3 
C3H6O1-2 C3H6O1-3 C3H6 C3H5-A C3H5-S 
C3H5-T CC3H6 C3H5O CH2CHOCH2 CH3CHCHO 
AC4H7OOH C3H6OH1-2 CH3CHCO AC3H5OOH C3H6OH2-1 
HOC3H6O2 SC3H5OH IC3H5OH C3H5OH CH2CCH2OH 
C3H4-P C3H4-A C3H3 C3H2 H2CCC(S) 
C3H2(S) C3H2C PC3H4OH-2 SC3H4OH C3H3O 
C3H3O2H C2HCHO C2H5CHO C2H5CO CH2CH2CHO 
C2H3CHO C2H3CO CH3COCH3 CH3COCH2 CH3COCH2O2 
CH3COCH2O C3KET21 C4H10 PC4H9 SC4H9 
PC4H9O SC4H9O PC4H9O2 SC4H9O2 PC4H9O2H 
C4H8OOH1-2 C4H8OOH1-3 C4H8OOH1-4 C4H8OOH2-1 C4H8OOH2-3 
C4H8OOH2-4 C4H8O1-2 C4H8O1-3 C4H8O1-4 C4H8OOH1-2O2 
C4H8OOH1-3O2 C4H8OOH1-4O2 C4H8OOH2-1O2 C4H8OOH2-3O2 C4H8OOH2-4O2 
C4H71-2,4OOH C4H72-1,3OOH C4H72-1,4OOH C4H71-2,3OOH C4H7O1-3OOH-4 
C4H7O1-2OOH-4 C4H7O1-4OOH-2 C4H7O1-2OOH-3 C4H7O2-3OOH-1 C4H72-1OOH 
NC4KET12 NC4KET13 NC4KET14 NC4KET21 C4H71-3OOH 
C4H71-3,4OOH C4H72-3,4OOH HO2CH2CHO IC4H10 IC4H9 
IC3H7CHO TC3H6CHO IC3H5CHO IC3H6CO IC3H5CO 
SC4H7OH-I IC4H8 IC4H7 IC4H7O2 IC4H6OOH-I 
CCYCCOOC-T1 IC4H7O CCYC2OCO CCYCCOOC-I2 CHOIC3H6O 
CCYCCO-T1 IC4H6OH TC3H6OH IC3H5OCH2 C4H8-1 
C4H8-2 C4H71-1 C4H71-2 C4H71-3 C4H71-4 
C4H72-2 C4H71-O PC4H8OH-2 SC4H8OH-1 C4H7O2-1 
C4H6-1 C4H63,1-1OH C4H5OH-13 C4H71-4OOH C4H71-4O2 
C4H61-3OOH4 PC4H8OH-1 C4H7O1-4 C4H72-2O2 C4H71-1O2 
C4H71-2O2 C3H6OH1-1 PC4H8OH-2O2 C4H71-3OOCH3 C4H72-1OOCH3 
C4H6 C4H612 C4H6-2 C4H5-I C4H5-N 
C4H5-2 C4H4 C4H3-I C4H3-N C4H2 
C2H3CHOCH2 C4H6O23 CH2CHCHCHO H2C4O NC3H7CHO 
NC3H7CO C3H6CHO-1 C3H6CHO-2 C3H6CHO-3 SC3H5CHO 
SC3H5CO C2H5COCH3 C2H5COCH2 CH2CH2COCH3 CH3CHCOCH3 
C2H3COCH3 CH3CHOOCOCH3 CH2CHOOHCOCH3 C2H5CHCO NC5H12 
C5H11-1 C5H11-2 C5H11-3 C5H11O2-1 C5H11O2-2 
C5H11O2-3 C5H11O-1 C5H10OOH1-2 C5H10OOH1-3 C5H10OOH1-4 
C5H10OOH2-1 C5H10OOH2-3 C5H10OOH2-4 C5H10OOH3-2 C5H10O1-2 
C5H10O1-3 C5H10O1-4 C5H10O2-4 C5H10OOH1-2O2 C5H10OOH1-3O2 
C5H10OOH1-4O2 C5H10OOH2-3O2 C5H10OOH2-4O2 C5H10OOH3-1O2 C5H10OOH3-2O2 
C5H91-3,5OOH C5H92-1,3OOH C5H92-1,4OOH C5H92-3,4OOH C5H92-3,5OOH 
C5H92-4,5OOH C5H93-2,4OOH C5H91-3OOH C5H91-4OOH C5H91-5OOH 
C5H92-1OOH C5H92-4OOH C5H92-5OOH C5H9O1-2OOH-3 C5H9O1-2OOH-4 
C5H9O2-3OOH-1 C5H9O2-3OOH-4 C5H9O2-3OOH-5 C5H9O2-4OOH-1 NC5KET12 
NC5KET13 NC5KET14 NC5KET23 NC5KET24 NC5KET12O 
NC5KET13O NC5KET14O NC5KET23O NC5KET24O C5H10-1 
C5H10-2 C5H81-3 C5H91-3 C5H91-4 C5H91-5 
C5H92-4 C5H92-5 C5H9O1-3 C5H9O2-4 CC5H10 
CC5H9-A CC5H9-B B13DE2M B13DE2MJ PC4H8CHO-1O2 
PC4H8CHO-2O2 PC4H8CHO-3O2 PC4H8CHO-4O2 C4H7CHO-2 C4H7CHO-3 
C4H7CHO-4 NC3H7COCH3 NC3H7COCH2 CH2CH2COC2H5 NC53ONEO2-1 
NC53ONE-1 C5H10OH12 C5H10OH-2O2 NC6H14 C6H13-1 
C6H13-2 C6H13-3 C6H13O2-1 C6H13O2-2 C6H13O2-3 
C6H13O-1 C6H12OOH1-2 C6H12OOH1-3 C6H12OOH2-1 C6H12OOH2-3 
C6H12OOH2-4 C6H12OOH2-5 C6H12OOH3-1 C6H12OOH3-2 C6H12OOH3-4 
C6H12OOH3-5 C6H12OOH3-6 C6H12O1-2 C6H12O1-3 C6H12O2-3 
C6H12O2-4 C6H12OOH1-2O2 C6H12OOH1-3O2 C6H12OOH2-3O2 C6H12OOH2-4O2 
C6H12OOH2-5O2 C6H12OOH3-2O2 C6H12OOH3-4O2 C6H12OOH3-5O2 C6H11-1D5OOH 
C6H11-2D5OOH C6H11-3D2OOH C6H11Q12-4 C6H11Q13-5 C6H11Q24-5 
C6H11Q25-3 C6KET13 C6KET23 C6KET24 C6KET25 
C6KET32 C6KET34 C6KET35 C6H11O23-5OOH C6H11O24-5OOH 
C4H7O12-4 C4H7O23-1 C5H9O23-1 C5H9O23-5 PC4H9CO 
C6KET13O C6KET23O C6KET24O C6KET25O C6KET32O 
C6KET34O NC5H11CHO C6Y2 CH3COOH C2H5COOH 
C6H12-1 C6H12-2 C6H12-3 C6H111-3 C6H111-4 
C6H111-5 C6H111-6 C6H112-4 C6H112-6 C6H113-1 
PC4H9CHO PC4H8CHO-1 PC4H8CHO-2 PC4H8CHO-3 PC4H8CHO-4 
C6H11-1D3O C6H11-1D4O C6H11-1D5O C6H11-2D1O C6H11-3D1O 
C6H11-3D2O NC5H11CO NC5H10CHO-2 NC5H10CHO-3 NC5H10CHO-4 
NC5H10CHO-5 C6H10D13 C6H10D24 C6H101-5 C6H9-A 
NC7H16 C7H15-1 C7H15-2 C7H15-3 C7H15-4 
C7H15OOH-1 C7H15OOH-2 C7H15OOH-3 C7H15OOH-4 C7H15-1O2 
C7H15-2O2 C7H15-3O2 C7H15-4O2 C7H15-1O C7H15-2O 
C7H15-3O C7H15-4O C7H14OOH1-2 C7H14OOH1-3 C7H14OOH1-4 
C7H14OOH1-5 C7H14OOH2-1 C7H14OOH2-3 C7H14OOH2-4 C7H14OOH2-5 
C7H14OOH2-6 C7H14OOH3-1 C7H14OOH3-2 C7H14OOH3-4 C7H14OOH3-5 
C7H14OOH3-6 C7H14OOH3-7 C7H14OOH4-1 C7H14OOH4-2 C7H14OOH4-3 
C7H14O1-2 C7H14O1-3 C7H14O1-4 C7H14O1-5 C7H14O2-3 
C7H14O2-4 C7H14O2-5 C7H14O2-6 C7H14O3-4 C7H14O3-5 
C7H14OOH1-3O2 C7H14OOH1-4O2 C7H14OOH1-5O2 C7H14OOH2-3O2 C7H14OOH2-4O2 
C7H14OOH2-5O2 C7H14OOH2-6O2 C7H14OOH3-1O2 C7H14OOH3-2O2 C7H14OOH3-4O2 
C7H14OOH3-5O2 C7H14OOH3-6O2 C7H14OOH3-7O2 C7H14OOH4-1O2 C7H14OOH4-2O2 
C7H14OOH4-3O2 C7H13Q13-2 C7H13Q13-4 C7H13Q13-5 C7H13Q13-6 
C7H13Q14-2 C7H13Q14-3 C7H13Q14-5 C7H13Q14-6 C7H13Q15-2 
C7H13Q15-3 C7H13Q15-4 C7H13Q24-1 C7H13Q24-5 C7H13Q24-6 
C7H13Q25-1 C7H13Q25-3 C7H13Q25-4 C7H13Q26-3 C7H13Q35-2 
C7KET13 C7KET14 C7KET23 C7KET24 C7KET25 
C7KET31 C7KET32 C7KET34 C7KET35 C7KET36 
C7KET37 C7KET41 C7KET42 C7KET43 C7H13-1D3OOH 
C7H13-1D4OOH C7H13-1D5OOH C7H13-1D6OOH C7H13-2D1OOH C7H13-2D4OOH 
C7H13-2D5OOH C7H13-2D6OOH C7H13-2D7OOH C7H13-3D1OOH C7H13-3D2OOH 
C7H13-3D5OOH C7H13-3D6OOH C7H13-3D7OOH C7H13O12-4OOH C7H13O12-5OOH 
C7H13O14-3OOH C7H13O15-3OOH C7H13O23-5OOH C7H13O23-6OOH C7H13O24-1OOH 
C7H13O24-5OOH C7H13O24-7OOH C7H13O25-3OOH C7H13O25-4OOH C7H13O25-7OOH 
C7H13O26-4OOH C7H13O34-1OOH C7H13O34-6OOH C7H13O34-7OOH C7H13O35-1OOH 
C7H13O35-2OOH C7KET13O C7KET14O C7KET23O C7KET24O 
C7KET25O C7KET31O C7KET32O C7KET34O C7KET35O 
C7KET36O C7KET37O C7KET41O C7KET42O C7KET43O 
C7Y24 C7Y13 C7Y35 C7H14OOH1-3O C7H14OOH4-2O 
C6H11O23-1 C6H11O24-1 C6H11O24-6 C6H11O34-1 C6Y2-1J 
C6Y3-6J C6Y3-1J C7H14-1 C7H14-2 C7H14-3 
C7H131-3 C7H131-4 C7H131-5 C7H131-6 C7H131-7 
C7H132-4 C7H132-5 C7H132-6 C7H132-7 C7H133-1 
C7H133-5 C7H133-6 C7H133-7 C7H13-1D3O C7H13-2D4O 
C7H13-3D5O C7H14OH-1J2 C7H14OH-2J1 C7H14OH-2J3 C7H14OH-3J2 
C7H14OH-3J4 C7H14OH-4J3 C7H14OH-1O2-2 C7H14OH-2O2-1 C7H14OH-2O2-3 
C7H14OH-3O2-2 C7H14OH-3O2-4 C7H14OH-4O2-3 C5D2Y1 C5D2Y1-1R 
C3Y1-3OR C4Y1-3OR C6D2Y1 C6D2Y1-1R C6H2 
C6H6 FULVENE C6H5 C6H5O C5H6 
C5H5 C#CCVCCJ C5H7 CVCCJCVC CVCCVCCJ 
OC5H7O C5H5O C5H4O C5H3O CJVCCVCCVO 
CVCCVCCJVO CJVCCVO 
END

THERMO ALL
  300.000  1000.000  5000.000
N2                G.8.02N   2               G     200.0    6000.0  1000.0      1
   2.95257637E0   1.3969004E-3 -4.92631603E-7 7.86010195E-11-4.60755204E-15    2
  -9.23948688E2   5.87188762E0   3.53100528E0 -1.23660988E-4 -5.02999433E-7    3
  2.43530612E-9-1.40881235E-12  -1.04697628E3   2.96747038E0                   4
HE                G.5.97HE  1               G     200.0    6000.0  1000.0      1
          2.5E0          0.0E0          0.0E0          0.0E0          0.0E0    2
     -7.45375E2  9.28723974E-1          2.5E0          0.0E0          0.0E0    3
          0.0E0          0.0E0     -7.45375E2  9.28723974E-1                   4
H2                TPIS78H   2               G     200.0    6000.0  1000.0      1
   2.93286575E0  8.26608026E-4 -1.46402364E-7 1.54100414E-11  -6.888048E-16    2
  -8.13065581E2  -1.02432865E0   2.34433112E0  7.98052075E-3  -1.9478151E-5    3
  2.01572094E-8-7.37611761E-12  -9.17935173E2  6.83010238E-1                   4
H                 L.6.94H   1               G     200.0    6000.0  1000.0      1
          2.5E0          0.0E0          0.0E0          0.0E0          0.0E0    2
     2.547366E4  -4.4668285E-1          2.5E0          0.0E0          0.0E0    3
          0.0E0          0.0E0     2.547366E4  -4.4668285E-1                   4
O2                RUS.89O   2               G     200.0    6000.0  1000.0      1
   3.66096065E0  6.56365811E-4 -1.41149627E-7 2.05797935E-11-1.29913436E-15    2
  -1.21597718E3   3.41536279E0   3.78245636E0 -2.99673416E-3  9.84730201E-6    3
 -9.68129509E-9 3.24372837E-12  -1.06394356E3   3.65767573E0                   4
O                 L.1.90O   1               G     200.0    6000.0  1000.0      1
   2.54363697E0 -2.73162486E-5  -4.1902952E-9 4.95481845E-12-4.79553694E-16    2
    2.9226012E4   4.92229457E0    3.1682671E0 -3.27931884E-3  6.64306396E-6    3
 -6.12806624E-9 2.11265971E-12   2.91222592E4   2.05193346E0                   4
H2O               L.5.89H   2O   1          G     200.0    6000.0  1000.0      1
    2.6770389E0   2.9731816E-3  -7.7376889E-7  9.4433514E-11 -4.2689991E-15    2
   -2.9885894E4      6.88255E0    4.1986352E0  -2.0364017E-3   6.5203416E-6    3
  -5.4879269E-9   1.771968E-12   -3.0293726E4  -8.4900901E-1                   4
OH                IU3.03H   1O   1          G     200.0    6000.0  1000.0      1
   2.83853033E0  1.10741289E-3 -2.94000209E-7 4.20698729E-11 -2.4228989E-15    2
   3.69780808E3   5.84494652E0   3.99198424E0 -2.40106655E-3  4.61664033E-6    3
 -3.87916306E-9 1.36319502E-12   3.36889836E3 -1.03998477E-1                   4
OHV               121286H   1O   1          G     300.0    5000.0  1000.0      1
      2.88273E0   1.0139743E-3   -2.276877E-7   2.174683E-11  -5.126305E-16    2
       5.0265E4     5.595712E0     3.637266E0     1.85091E-4  -1.6761646E-6    3
    2.387202E-9  -8.431442E-13      5.00213E4    1.3588605E0                   4
H2O2              T.8.03H   2O   2          G     200.0    6000.0  1000.0      1
   4.57977305E0  4.05326003E-3  -1.2984473E-6   1.982114E-10-1.13968792E-14    2
  -1.80071775E4  6.64970694E-1   4.31515149E0 -8.47390622E-4  1.76404323E-5    3
 -2.26762944E-8 9.08950158E-12  -1.77067437E4   3.27373319E0                   4
HO2               T.1.09H   1O   2          G     200.0    5000.0  1000.0      1
   4.17228741E0  1.88117627E-3 -3.46277286E-7 1.94657549E-11 1.76256905E-16    2
   3.10206839E1   2.95767672E0   4.30179807E0 -4.74912097E-3  2.11582905E-5    3
 -2.42763914E-8 9.29225225E-12   2.64018485E2    3.7166622E0                   4
CO                RUS.79C   1O   1          G     200.0    6000.0  1000.0      1
    3.0484859E0   1.3517281E-3  -4.8579405E-7  7.8853644E-11 -4.6980746E-15    2
   -1.4266117E4    6.0170977E0    3.5795335E0  -6.1035369E-4   1.0168143E-6    3
  9.0700586E-10 -9.0442449E-13   -1.4344086E4    3.5084093E0                   4
CO2               L.7.88C   1O   2          G     200.0    6000.0  1000.0      1
    4.6365111E0   2.7414569E-3  -9.9589759E-7  1.6038666E-10 -9.1619857E-15    2
   -4.9024904E4   -1.9348955E0     2.356813E0   8.9841299E-3  -7.1220632E-6    3
   2.4573008E-9 -1.4288548E-13   -4.8371971E4    9.9009035E0                   4
HOCO              T05.06C   1H   1O   2     G     200.0    6000.0  1000.0      1
   5.39206152E0  4.11221455E-3   -1.481949E-6  2.3987546E-10-1.43903104E-14    2
  -2.38606717E4  -2.23529091E0   2.92207919E0  7.62453859E-3  3.29884437E-6    3
 -1.07135205E-8 5.11587057E-12  -2.30281524E4   1.12925886E1                   4
CH4               G.8.99C   1H   4          G     200.0    6000.0  1000.0      1
   1.65326226E0  1.00263099E-2 -3.31661238E-6 5.36483138E-10-3.14696758E-14    2
  -1.00095936E4   9.90506283E0   5.14911468E0 -1.36622009E-2  4.91453921E-5    3
 -4.84246767E-8 1.66603441E-11  -1.02465983E4  -4.63848842E0                   4
CH3               IU0702C   1H   3          G     200.0    6000.0  1000.0      1
    2.9781206E0    5.797852E-3    -1.97558E-6   3.072979E-10 -1.7917416E-14    2
    1.6509513E4    4.7224799E0    3.6571797E0   2.1265979E-3   5.4583883E-6    3
  -6.6181003E-9  2.4657074E-12    1.6422716E4    1.6735354E0                   4
CH2               IU3.03C   1H   2          G     200.0    6000.0  1000.0      1
   3.14631886E0  3.03671259E-3 -9.96474439E-7  1.5048358E-10-8.57335515E-15    2
   4.60412605E4   4.72341711E0   3.71757846E0   1.2739126E-3  2.17347251E-6    3
   -3.488585E-9 1.65208866E-12   4.58723866E4   1.75297945E0                   4
CH2(S)            IU6.03C   1H   2          G     200.0    6000.0  1000.0      1
   3.13501686E0  2.89593926E-3  -8.1666809E-7 1.13572697E-10-6.36262835E-15    2
   5.05040504E4   4.06030621E0   4.19331325E0 -2.33105184E-3  8.15676451E-6    3
 -6.62985981E-9 1.93233199E-12   5.03662246E4  -7.4673431E-1                   4
C                 L.7.88C   1               G     200.0    6000.0  1000.0      1
     2.605583E0  -1.9593434E-4   1.0673722E-7  -1.642394E-11   8.187058E-16    2
    8.5411742E4    4.1923868E0    2.5542395E0  -3.2153772E-4   7.3379223E-7    3
 -7.3223487E-10  2.6652144E-13    8.5442681E4    4.5313085E0                   4
CH                IU3.03C   1H   1          G     200.0    6000.0  1000.0      1
    2.5209369E0   1.7653639E-3   -4.614766E-7  5.9289675E-11 -3.3474501E-15    2
    7.0946769E4    7.4051829E0    3.4897583E0    3.243216E-4  -1.6899751E-6    3
    3.162842E-9 -1.4061803E-12    7.0612646E4    2.0842841E0                   4
CHV               073003C   1H   1          G     300.0    5000.0  1000.0      1
     2.196223E0    2.340381E-3   -7.058201E-7   9.007582E-11   -3.85504E-15    2
    1.0419559E5     9.178373E0     3.200202E0    2.072875E-3   -5.134431E-6    3
     5.73389E-9  -1.955533E-12    1.0393714E5     3.331587E0                   4
CH3O2H            A.7.05C   1H   4O   2     G     200.0    6000.0  1000.0      1
   7.76538058E0  8.61499712E-3 -2.98006935E-6 4.68638071E-10-2.75339255E-14    2
  -1.82979984E4  -1.43992663E1   2.90540897E0  1.74994735E-2   5.2824363E-6    3
 -2.52827275E-8 1.34368212E-11  -1.68894632E4   1.13741987E1                   4
CH3O2                   C   1H   3O   2     G     300.0    5000.0  1374.0      1
   6.47970487E0   7.4440108E-3 -2.52348555E-6 3.89577296E-10-2.25182399E-14    2
  -1.56285441E3  -8.19477074E0   1.97339205E0   1.5354234E-2 -6.37314891E-6    3
 3.19930565E-10 2.82193915E-13   2.54278835E2   1.69194215E1                   4
CH2O2H                  C   1H   3O   2     G     300.0    5000.0  1410.0      1
   9.24697852E0  4.60845541E-3 -1.53501472E-6  2.3443483E-10-1.34573106E-14    2
   4.11529953E3  -2.11503248E1   2.88976454E0  2.09465776E-2 -1.75190772E-5    3
  7.27819787E-9-1.18912344E-12    6.1239062E3   1.23802076E1                   4
CH3OH             T06.02C   1H   4O   1     G     200.0    6000.0  1000.0      1
   3.52726795E0  1.03178783E-2 -3.62892944E-6 5.77448016E-10-3.42182632E-14    2
  -2.60028834E4   5.16758693E0   5.65851051E0 -1.62983419E-2  6.91938156E-5    3
 -7.58372926E-8  2.8042755E-11  -2.56119736E4 -8.97330508E-1                   4
CH3O              IU1.03C   1H   3O   1     G     200.0    6000.0  1000.0      1
   4.75779238E0  7.44142474E-3 -2.69705176E-6 4.38090504E-10-2.63537098E-14    2
    3.7811194E2  -1.96680028E0   3.71180502E0 -2.80463306E-3  3.76550971E-5    3
 -4.73072089E-8  1.8658842E-11    1.2956976E3   6.57240864E0                   4
CH2OH             IU2.03C   1H   3O   1     G     200.0    6000.0  1000.0      1
    5.0931437E0   5.9476126E-3  -2.0649746E-6 3.23008173E-10-1.88125902E-14    2
   -4.0340964E3  -1.84691493E0   4.47834367E0  -1.3507031E-3   2.7848498E-5    3
  -3.6486906E-8  1.4790745E-11   -3.5007289E3     3.309135E0                   4
CH2O              T.5.11C   1H   2O   1     G     200.0    6000.0  1000.0      1
   3.16952665E0   6.1932056E-3 -2.25056366E-6  3.6597566E-10-2.20149458E-14    2
  -1.45486831E4   6.04207898E0   4.79372312E0 -9.90833322E-3   3.7321999E-5    3
 -3.79285237E-8 1.31772641E-11  -1.43791953E4  6.02798058E-1                   4
HCO               T.5.03C   1H   1O   1     G     200.0    6000.0  1000.0      1
   3.92001542E0  2.52279324E-3 -6.71004164E-7 1.05615948E-10-7.43798261E-15    2
   3.65342928E3   3.58077056E0    4.2375461E0 -3.32075257E-3  1.40030264E-5    3
 -1.34239995E-8 4.37416208E-12   3.87241185E3   3.30834869E0                   4
HCOH              .MAR94C   1H   2O   1     G     300.0    5000.0  1398.0      1
   9.18749272E0  1.52011152E-3 -6.27603516E-7 1.09727989E-10-6.89655128E-15    2
   7.81364593E3  -2.73434214E1  -2.82157421E0  3.57331702E-2  -3.8086158E-5    3
  1.86205951E-8-3.45957838E-12   1.12956672E4   3.48487757E1                   4
HO2CHO            .THERMC   1H   2O   3     G     300.0    5000.0  1378.0      1
   9.87503878E0  4.64663708E-3 -1.67230522E-6 2.68624413E-10-1.59595232E-14    2
  -3.80502496E4  -2.24939155E1   2.42464726E0   2.1970638E-2 -1.68705546E-5    3
  6.25612194E-9-9.11645843E-13  -3.54828006E4   1.75027796E1                   4
HOCH2O            .THERMC   1H   3O   2     G     300.0    5000.0  1452.0      1
   6.39521515E0  7.43673043E-3 -2.50422354E-6 3.84879712E-10-2.21778689E-14    2
   -2.4110884E4  -6.63865583E0   4.11183145E0  7.53850697E-3   3.7733737E-6    3
 -5.38746005E-9 1.45615887E-12  -2.28023001E4   7.46807254E0                   4
O2CHO             .THERMC   1H   1O   3     G     300.0    5000.0  1368.0      1
   7.24075139E0  4.63312951E-3 -1.63693995E-6 2.59706693E-10-1.52964699E-14    2
  -1.87027618E4  -6.49547212E0   3.96059309E0  1.06002279E-2 -5.25713351E-6    3
  1.01716726E-9-2.87487602E-14  -1.73599383E4   1.17807483E1                   4
HOCHO             L.8.88C   1H   2O   2     G     200.0    6000.0  1000.0      1
    4.6138316E0   6.4496364E-3  -2.2908251E-6  3.6716047E-10 -2.1873675E-14    2
    -4.751485E4   8.4788383E-1    3.8983616E0  -3.5587795E-3   3.5520538E-5    3
  -4.3849959E-8  1.7107769E-11   -4.6770609E4    7.3495397E0                   4
OCHO              ATCT.AC   1H   1O   2     G     200.0    6000.0  1000.0      1
   4.14394211E0  5.59738818E-3 -1.99794019E-6 3.16179193E-10-1.85614483E-14    2
  -1.72459887E4   5.07778617E0   4.68825921E0 -4.14871834E-3   2.5506601E-5    3
   -2.844739E-8 1.04422559E-11  -1.69867041E4    4.2842648E0                   4
C2H6              G.8.88C   2H   6          G     200.0    6000.0  1000.0      1
   4.04666411E0  1.53538802E-2 -5.47039485E-6 8.77826544E-10-5.23167531E-14    2
  -1.24473499E4 -9.68698313E-1   4.29142572E0 -5.50154901E-3  5.99438458E-5    3
 -7.08466469E-8 2.68685836E-11  -1.15222056E4   2.66678994E0                   4
C2H5              .THERMC   2H   5          G     300.0    5000.0  1387.0      1
    5.8878439E0  1.03076793E-2 -3.46844396E-6 5.32499257E-10-3.06512651E-14    2
   1.15065499E4  -8.49651771E0   1.32730217E0  1.76656753E-2 -6.14926558E-6    3
-3.01143466E-10 4.38617775E-13   1.34284028E4   1.71789216E1                   4
C2H5O2H                 C   2H   6O   2     G     300.0    5000.0  1390.0      1
   1.04823538E1  1.34779879E-2 -4.62179078E-6 7.18618519E-10-4.17307436E-14    2
  -2.46578171E4  -2.84294243E1   1.83755328E0  3.38053586E-2  -2.3754814E-5    3
  9.31974865E-9-1.58003428E-12  -2.15814086E4   1.80977584E1                   4
C2H5O2                  C   2H   5O   2     G     300.0    5000.0  1389.0      1
    9.5028257E0  1.20429839E-2 -4.09491581E-6 6.33049241E-10-3.66133788E-14    2
  -7.37069391E3   -2.2171713E1   3.90351912E0  2.22599212E-2 -1.01610079E-5    3
  1.71709751E-9 1.88166738E-14  -5.09654081E3    8.9872275E0                   4
C2H4                    C   2H   4          G     300.0    5000.0  1392.0      1
   5.07061289E0  9.11140768E-3 -3.10506692E-6 4.80733851E-10-2.78321396E-14    2
   3.66391217E3  -6.64501414E0  4.81118223E-1   1.8377806E-2 -9.99633565E-6    3
  2.73211039E-9-3.01837289E-13   5.44386648E3   1.85867157E1                   4
C2H3                    C   2H   3          G     300.0    5000.0  1400.0      1
   4.99675415E0  6.55838271E-3 -2.20921909E-6 3.39300272E-10-1.95316926E-14    2
   3.34604382E4  -3.01451097E0   1.25545094E0  1.57481597E-2 -1.12218328E-5    3
  4.50915682E-9-7.74861577E-13   3.47435574E4   1.69664043E1                   4
CHOCHO                  C   2H   2O   2     G     300.0    5000.0  1386.0      1
   9.75438561E0  4.97645947E-3 -1.74410483E-6 2.75586994E-10-1.61969892E-14    2
  -2.95832896E4  -2.61878329E1    1.8810512E0  2.36386368E-2 -1.83443295E-5    3
  6.84842963E-9-9.92733674E-13   -2.6928019E4   1.59154793E1                   4
C2H3OOH           .THERMC   2H   4O   2     G     300.0    5000.0  1397.0      1
   1.15749951E1  8.09909174E-3 -2.81808668E-6 4.42697954E-10-2.58998042E-14    2
  -8.84852664E3  -3.43859117E1   1.35644398E0  3.37002447E-2   -2.759885E-5    3
  1.14222854E-8-1.89488886E-12  -5.49996692E3   1.98354466E1                   4
C2H3OO                  C   2H   3O   2     G    298.15    2000.0  1000.0      1
   6.04483828E0  1.45511127E-2 -7.50974622E-6   1.8348828E-9-1.66689681E-13    2
   1.01699244E4  -3.71144913E0   1.09784776E0  2.95333237E-2  -2.2774436E-5    3
  7.20559155E-9-3.07929092E-13   1.13996101E4   2.13563583E1                   4
CHCHO                   C   2H   2O   1     G    298.15    2000.0  1000.0      1
    4.9263291E0  9.71712147E-3  -5.5485598E-6  1.53068537E-9-1.64742462E-13    2
   2.89499494E4  5.27874677E-1   2.33256751E0  1.62952986E-2 -9.72052177E-6    3
 5.15124155E-10 1.03836514E-12   2.96585452E4   1.39904923E1                   4
C2H2              G.1.91C   2H   2          G     200.0    6000.0  1000.0      1
   4.65878489E0  4.88396667E-3 -1.60828888E-6 2.46974544E-10-1.38605959E-14    2
   2.57594042E4  -3.99838194E0  8.08679682E-1  2.33615762E-2 -3.55172234E-5    3
  2.80152958E-8-8.50075165E-12   2.64289808E4   1.39396761E1                   4
C2H               T.5.10C   2H   1          G     200.0    6000.0  1000.0      1
   3.66270248E0  3.82492252E-3   -1.366325E-6  2.1345504E-10-1.23216848E-14    2
    6.7168379E4   3.92205792E0   2.89867676E0  1.32988489E-2 -2.80733327E-5    3
  2.89484755E-8-1.07502351E-11    6.7061605E4   6.18547632E0                   4
H2CC              L12.89C   2H   2          G     200.0    6000.0  1000.0      1
     4.278034E0   4.7562804E-3  -1.6301009E-6  2.5462806E-10 -1.4886379E-14    2
    4.8316688E4   6.4023701E-1    3.2815483E0   6.9764791E-3  -2.3855244E-6    3
  -1.2104432E-9  9.8189545E-13    4.8621794E4     5.920391E0                   4
C2H5OH                  C   2H   6O   1     G     300.0    5000.0  1402.0      1
   8.14483865E0  1.28314052E-2 -4.29052743E-6 6.55971721E-10-3.76506611E-14    2
  -3.24005526E4  -1.86241126E1  2.15805861E-1  2.95228396E-2 -1.68271048E-5    3
  4.49484797E-9-4.02451543E-13  -2.94851823E4   2.45725052E1                   4
C2H5O                   C   2H   5O   1     G     300.0    5000.0  1467.0      1
   8.19120635E0  1.10391986E-2 -3.75270536E-6 5.80275784E-10-3.35735146E-14    2
  -5.66847208E3  -1.90131344E1   2.90353584E0  1.77256708E-2 -2.69624757E-6    3
 -3.45830533E-9 1.25224784E-12   -3.2893029E3   1.13545591E1                   4
PC2H4OH                 C   2H   5O   1     G     300.0    5000.0  1395.0      1
    8.0675015E0  1.06143554E-2  -3.5799936E-6  5.5036376E-10-3.17051769E-14    2
  -6.92747939E3  -1.53833428E1   2.59479867E0  2.27100669E-2 -1.39473846E-5    3
  4.70095591E-9-6.90044236E-13  -4.91486975E3   1.43240718E1                   4
SC2H4OH                 C   2H   5O   1     G     300.0    5000.0  1385.0      1
   8.15007136E0  1.02549305E-2 -3.40137764E-6 5.17509965E-10-2.96128942E-14    2
  -1.05014386E4  -1.73134615E1   1.46281093E0  2.39193995E-2 -1.30667185E-5    3
  3.10615465E-9-1.85896007E-13  -8.00790323E3   1.92547092E1                   4
O2C2H4OH          .THERMC   2H   5O   3     G     300.0    5000.0  1506.0      1
   1.27503881E1  1.11514325E-2 -3.83473891E-6 5.98155829E-10-3.48372108E-14    2
  -2.52770876E4  -3.54317608E1     7.040098E0  1.59564166E-2  2.21097416E-6    3
 -7.05197355E-9 2.08266026E-12  -2.24524432E4  -1.75361758E0                   4
C2H4O2H                 C   2H   5O   2     G     300.0    5000.0  1389.0      1
   1.00590614E1  1.13378955E-2 -3.89403387E-6 6.06090687E-10-3.52212353E-14    2
   4.24048653E2  -2.32086536E1   2.75788364E0  2.88271987E-2 -2.08302264E-5    3
  8.47401397E-9 -1.4861761E-12   3.00153893E3   1.59921711E1                   4
C2H4O1-2          L.8.88C   2H   4O   1     G     200.0    6000.0  1000.0      1
    5.4887641E0    1.204619E-2  -4.3336931E-6  7.0028311E-10 -4.1949088E-14    2
   -9.1804251E3   -7.0799605E0    3.7590532E0   -9.441218E-3   8.0309721E-5    3
  -1.0080788E-7  4.0039921E-11   -7.5608143E3    7.8497475E0                   4
C2H3O1-2          A.1.05C   2H   3O   1     G     200.0    6000.0  1000.0      1
   5.60158035E0  9.17613962E-3 -3.28028902E-6 5.27903888E-10-3.15362241E-14    2
   1.71446252E4  -5.47228512E0   3.58349017E0 -6.02275805E-3  6.32426867E-5    3
 -8.18540707E-8 3.30444505E-11   1.85681353E4   9.59725926E0                   4
CH3CHO            L.8.88C   2H   4O   1     G     200.0    6000.0  1000.0      1
    5.4041108E0   1.1723059E-2  -4.2263137E-6  6.8372451E-10 -4.0984863E-14    2
   -2.2593122E4   -3.4807917E0    4.7294595E0  -3.1932858E-3   4.7534921E-5    3
  -5.7458611E-8  2.1931112E-11   -2.1572878E4    4.1030159E0                   4
CH3CO             IU2.03C   2H   3O   1     G     200.0    6000.0  1000.0      1
    5.3137165E0   9.1737793E-3  -3.3220386E-6  5.3947456E-10 -3.2452368E-14    2
   -3.6450414E3   -1.6757558E0    4.0358705E0   8.7729487E-4    3.071001E-5    3
  -3.9247565E-8  1.5296869E-11   -2.6820738E3    7.8617682E0                   4
CH2CHO            T03.10C   2H   3O   1     G     200.0    6000.0  1000.0      1
   6.53928338E0  7.80238629E-3 -2.76413612E-6 4.42098906E-10 -2.6295429E-14    2
  -1.18858659E3  -8.72091393E0     2.795026E0  1.01099472E-2  1.61750645E-5    3
 -3.10303145E-8 1.39436139E-11   1.62944975E2   1.23646657E1                   4
O2CH2CHO          BOZ.03C   2H   3O   3     G     300.0    5000.0  1393.0      1
   1.11807543E1  9.14479256E-3 -3.15089833E-6 4.91944238E-10 -2.8663918E-14    2
  -1.55790331E4   -2.8789274E1  -1.29465843E0  4.44936393E-2 -4.26577074E-5    3
   2.0739195E-8-3.96828771E-12  -1.18275628E4   3.60778797E1                   4
HO2CH2CO          BOZ.03C   2H   3O   3     G     300.0    5000.0  1386.0      1
   1.04146322E1  1.12680116E-2 -5.17494839E-6  1.00333285E-9-6.68165911E-14    2
  -1.40955672E4    -2.278944E1   2.22681686E0   3.5678138E-2 -3.26401909E-5    3
  1.47651988E-8 -2.6479438E-12  -1.18735095E4   1.91581197E1                   4
C2H3OH            .THERMC   2H   4O   1     G     300.0    5000.0  1410.0      1
   8.32598158E0  8.03387281E-3 -2.63928405E-6 3.98410726E-10-2.26551155E-14    2
  -1.83221436E4  -2.02080305E1  -1.2797226E-1  3.38506073E-2 -3.30644935E-5    3
  1.64858739E-8-3.19935455E-12  -1.59914544E4   2.30438601E1                   4
C2H2OH                  C   2H   3O   1     G     300.0    5000.0  1401.0      1
   8.20268447E0  5.92989165E-3 -1.99194448E-6 3.05794341E-10-1.76114732E-14    2
   1.24881328E4  -1.89670436E1  6.41642616E-1  2.61903633E-2  -2.3038537E-5    3
  1.02804704E-8-1.81971416E-12   1.48276951E4   2.06750999E1                   4
CH2CO                   C   2H   2O   1     G     300.0    5000.0  1000.0      1
   5.35869367E0  6.95641586E-3 -2.64802637E-6 4.65067592E-10 -3.0864182E-14    2
  -7.90294013E3  -3.98525731E0   1.81422511E0   1.9900859E-2 -2.21416008E-5    3
  1.45028521E-8-3.98877068E-12  -7.05394926E3   1.36079359E1                   4
HCCO              T.4.09C   2H   1O   1     G     200.0    6000.0  1000.0      1
   5.91479333E0   3.7140873E-3  -1.3013701E-6 2.06473345E-10-1.21476759E-14    2
   1.93596301E4  -5.50567269E0   1.87607969E0  2.21205418E-2 -3.58869325E-5    3
  3.05402541E-8-1.01281069E-11    2.0163384E4    1.3696829E1                   4
HCCOH             T12.09C   2H   2O   1     G     200.0    6000.0  1000.0      1
   6.37509678E0  5.49429011E-3 -1.88136576E-6 2.93803536E-10-1.71771901E-14    2
   8.93277676E3  -8.24498007E0   2.05541154E0  2.52003372E-2 -3.80821654E-5    3
  3.09890632E-8-9.89799902E-12   9.76872113E3   1.22271534E1                   4