! !!!!!!!!!!!!!!!!!!!!!!!!!!!!!!!!!!!!!!!!!!!!!!!!!!!!!!!!!!!!!!!!!!!!!!!!!!!!!!!!!!!!!!!
!                                                                                      !
!                    This CHEMKIN mechanism file is part of the                        !
!                            Supplemental Material for                                 !
!                                                                                      !
!       An updated experimental and kinetic modeling study of n-heptane oxidation      !
!                                                                                      !
!            Kuiwen Zhang 1, Colin Banyon 1, John Bugler 1, Henry J. Curran 1*         !
!             Anne Rodriguez,2 Olivier Herbinet,2 Fr   d   rique Battin-Leclerc2           !
!                         Christine B'Chir3, Karl Alexander Heufer3                    !
!                                                                                      !
!       1 School of Chemistry, National University of Ireland Galway, Ireland          !
!   2 Laboratoire R   actions et G   nie des Proc   d   s, CNRS, Universit    de Lorraine,       !
!           ENSIC, 1, rue Grandville, BP 20451, 54001 Nancy Cedex, France              !
!   3 Physico-Chemical Fundamentals of Combustion (PCFC), RWTH Aachen University,      !
!                           Schinkelstr. 8, 52062 Aachen                               !
!                                                                                      !
! !!!!!!!!!!!!!!!!!!!!!!!!!!!!!!!!!!!!!!!!!!!!!!!!!!!!!!!!!!!!!!!!!!!!!!!!!!!!!!!!!!!!!!
! ++++++++++++++++++++++++++++++++++++++++++++++++++++++++++++++++++++++++++++++++++++++++++++++++++++++++++++++++++++++++++++++++++++++++++++++++++++++++++++++
! \END_SPECIES_LIST
! \START_KINETICS_INPUT
! 
! Chemkin file converted from Cantera solution object
! 

ELEMENTS
C  H  N  O  Ar  He
END


SPECIES
N2                 ! 
HE                 ! 
H2                 ! 
H                  ! 
O2                 ! 
O                  ! 
H2O                ! 
OH                 ! 
OHV                ! 
H2O2               ! 
HO2                ! 
CO                 ! 
CO2                ! 
HOCO               ! 
CH4                ! 
CH3                ! 
CH2                ! 
CH2(S)             ! 
C                  ! 
CH                 ! 
CHV                ! 
CH3O2H             ! 
CH3O2              ! 
CH2O2H             ! 
CH3OH              ! 
CH3O               ! 
CH2OH              ! 
CH2O               ! 
HCO                ! 
HCOH               ! 
HO2CHO             ! 
HOCH2O             ! 
O2CHO              ! 
HOCHO              ! 
OCHO               ! 
C2H6               ! 
C2H5               ! 
C2H5O2H            ! 
C2H5O2             ! 
C2H4               ! 
C2H3               ! 
CHOCHO             ! 
C2H3OOH            ! 
C2H3OO             ! 
CHCHO              ! 
C2H2               ! 
C2H                ! 
H2CC               ! 
C2H5OH             ! 
C2H5O              ! 
PC2H4OH            ! 
SC2H4OH            ! 
O2C2H4OH           ! 
C2H4O2H            ! 
C2H4O1-2           ! 
C2H3O1-2           ! 
CH3CHO             ! 
CH3CO              ! 
CH2CHO             ! 
O2CH2CHO           ! 
HO2CH2CO           ! 
C2H3OH             ! 
C2H2OH             ! 
CH2CO              ! 
HCCO               ! 
HCCOH              ! 
CH3CO3H            ! 
CH3CO3             ! 
CH3CO2             ! 
CH3OCH3            ! 
CH3OCH2            ! 
C3H8               ! 
IC3H7              ! 
NC3H7              ! 
NC3H7O2H           ! 
NC3H7O2            ! 
IC3H7O2            ! 
NC3H7O             ! 
IC3H7O             ! 
C3H6OOH1-2         ! 
C3H6OOH1-3         ! 
C3H6OOH2-1         ! 
C3H6OOH1-2O2       ! 
C3H6OOH1-3O2       ! 
C3H6OOH2-1O2       ! 
C3KET12            ! 
C3KET13            ! 
C3H51-2,3OOH       ! 
C3H52-1,3OOH       ! 
C3H5O1-2OOH-3      ! 
C3H6O1-2           ! 
C3H6O1-3           ! 
C3H6               ! 
C3H5-A             ! 
C3H5-S             ! 
C3H5-T             ! 
CC3H6              ! 
C3H5O              ! 
CH2CHOCH2          ! 
CH3CHCHO           ! 
AC4H7OOH           ! 
C3H6OH1-2          ! 
CH3CHCO            ! 
AC3H5OOH           ! 
C3H6OH2-1          ! 
HOC3H6O2           ! 
SC3H5OH            ! 
IC3H5OH            ! 
C3H5OH             ! 
CH2CCH2OH          ! 
C3H4-P             ! 
C3H4-A             ! 
C3H3               ! 
C3H2               ! 
H2CCC(S)           ! 
C3H2(S)            ! 
C3H2C              ! 
PC3H4OH-2          ! 
SC3H4OH            ! 
C3H3O              ! 
C3H3O2H            ! 
C2HCHO             ! 
C2H5CHO            ! 
C2H5CO             ! 
CH2CH2CHO          ! 
C2H3CHO            ! 
C2H3CO             ! 
CH3COCH3           ! 
CH3COCH2           ! 
CH3COCH2O2         ! 
CH3COCH2O          ! 
C3KET21            ! 
C4H10              ! 
PC4H9              ! 
SC4H9              ! 
PC4H9O             ! 
SC4H9O             ! 
PC4H9O2            ! 
SC4H9O2            ! 
PC4H9O2H           ! 
C4H8OOH1-2         ! 
C4H8OOH1-3         ! 
C4H8OOH1-4         ! 
C4H8OOH2-1         ! 
C4H8OOH2-3         ! 
C4H8OOH2-4         ! 
C4H8O1-2           ! 
C4H8O1-3           ! 
C4H8O1-4           ! 
C4H8OOH1-2O2       ! 
C4H8OOH1-3O2       ! 
C4H8OOH1-4O2       ! 
C4H8OOH2-1O2       ! 
C4H8OOH2-3O2       ! 
C4H8OOH2-4O2       ! 
C4H71-2,4OOH       ! 
C4H72-1,3OOH       ! 
C4H72-1,4OOH       ! 
C4H71-2,3OOH       ! 
C4H7O1-3OOH-4      ! 
C4H7O1-2OOH-4      ! 
C4H7O1-4OOH-2      ! 
C4H7O1-2OOH-3      ! 
C4H7O2-3OOH-1      ! 
C4H72-1OOH         ! 
NC4KET12           ! 
NC4KET13           ! 
NC4KET14           ! 
NC4KET21           ! 
C4H71-3OOH         ! 
C4H71-3,4OOH       ! 
C4H72-3,4OOH       ! 
HO2CH2CHO          ! 
IC4H10             ! 
IC4H9              ! 
IC3H7CHO           ! 
TC3H6CHO           ! 
IC3H5CHO           ! 
IC3H6CO            ! 
IC3H5CO            ! 
SC4H7OH-I          ! 
IC4H8              ! 
IC4H7              ! 
IC4H7O2            ! 
IC4H6OOH-I         ! 
CCYCCOOC-T1        ! 
IC4H7O             ! 
CCYC2OCO           ! 
CCYCCOOC-I2        ! 
CHOIC3H6O          ! 
CCYCCO-T1          ! 
IC4H6OH            ! 
TC3H6OH            ! 
IC3H5OCH2          ! 
C4H8-1             ! 
C4H8-2             ! 
C4H71-1            ! 
C4H71-2            ! 
C4H71-3            ! 
C4H71-4            ! 
C4H72-2            ! 
C4H71-O            ! 
PC4H8OH-2          ! 
SC4H8OH-1          ! 
C4H7O2-1           ! 
C4H6-1             ! 
C4H63,1-1OH        ! 
C4H5OH-13          ! 
C4H71-4OOH         ! 
C4H71-4O2          ! 
C4H61-3OOH4        ! 
PC4H8OH-1          ! 
C4H7O1-4           ! 
C4H72-2O2          ! 
C4H71-1O2          ! 
C4H71-2O2          ! 
C3H6OH1-1          ! 
PC4H8OH-2O2        ! 
C4H71-3OOCH3       ! 
C4H72-1OOCH3       ! 
C4H6               ! 
C4H612             ! 
C4H6-2             ! 
C4H5-I             ! 
C4H5-N             ! 
C4H5-2             ! 
C4H4               ! 
C4H3-I             ! 
C4H3-N             ! 
C4H2               ! 
C2H3CHOCH2         ! 
C4H6O23            ! 
CH2CHCHCHO         ! 
H2C4O              ! 
NC3H7CHO           ! 
NC3H7CO            ! 
C3H6CHO-1          ! 
C3H6CHO-2          ! 
C3H6CHO-3          ! 
SC3H5CHO           ! 
SC3H5CO            ! 
C2H5COCH3          ! 
C2H5COCH2          ! 
CH2CH2COCH3        ! 
CH3CHCOCH3         ! 
C2H3COCH3          ! 
CH3CHOOCOCH3       ! 
CH2CHOOHCOCH3      ! 
C2H5CHCO           ! 
NC5H12             ! 
C5H11-1            ! 
C5H11-2            ! 
C5H11-3            ! 
C5H11O2-1          ! 
C5H11O2-2          ! 
C5H11O2-3          ! 
C5H11O-1           ! 
C5H10OOH1-2        ! 
C5H10OOH1-3        ! 
C5H10OOH1-4        ! 
C5H10OOH2-1        ! 
C5H10OOH2-3        ! 
C5H10OOH2-4        ! 
C5H10OOH3-2        ! 
C5H10O1-2          ! 
C5H10O1-3          ! 
C5H10O1-4          ! 
C5H10O2-4          ! 
C5H10OOH1-2O2      ! 
C5H10OOH1-3O2      ! 
C5H10OOH1-4O2      ! 
C5H10OOH2-3O2      ! 
C5H10OOH2-4O2      ! 
C5H10OOH3-1O2      ! 
C5H10OOH3-2O2      ! 
C5H91-3,5OOH       ! 
C5H92-1,3OOH       ! 
C5H92-1,4OOH       ! 
C5H92-3,4OOH       ! 
C5H92-3,5OOH       ! 
C5H92-4,5OOH       ! 
C5H93-2,4OOH       ! 
C5H91-3OOH         ! 
C5H91-4OOH         ! 
C5H91-5OOH         ! 
C5H92-1OOH         ! 
C5H92-4OOH         ! 
C5H92-5OOH         ! 
C5H9O1-2OOH-3      ! 
C5H9O1-2OOH-4      ! 
C5H9O2-3OOH-1      ! 
C5H9O2-3OOH-4      ! 
C5H9O2-3OOH-5      ! 
C5H9O2-4OOH-1      ! 
NC5KET12           ! 
NC5KET13           ! 
NC5KET14           ! 
NC5KET23           ! 
NC5KET24           ! 
NC5KET12O          ! 
NC5KET13O          ! 
NC5KET14O          ! 
NC5KET23O          ! 
NC5KET24O          ! 
C5H10-1            ! 
C5H10-2            ! 
C5H81-3            ! 
C5H91-3            ! 
C5H91-4            ! 
C5H91-5            ! 
C5H92-4            ! 
C5H92-5            ! 
C5H9O1-3           ! 
C5H9O2-4           ! 
CC5H10             ! 
CC5H9-A            ! 
CC5H9-B            ! 
B13DE2M            ! 
B13DE2MJ           ! 
PC4H8CHO-1O2       ! 
PC4H8CHO-2O2       ! 
PC4H8CHO-3O2       ! 
PC4H8CHO-4O2       ! 
C4H7CHO-2          ! 
C4H7CHO-3          ! 
C4H7CHO-4          ! 
NC3H7COCH3         ! 
NC3H7COCH2         ! 
CH2CH2COC2H5       ! 
NC53ONEO2-1        ! 
NC53ONE-1          ! 
C5H10OH12          ! 
C5H10OH-2O2        ! 
NC6H14             ! 
C6H13-1            ! 
C6H13-2            ! 
C6H13-3            ! 
C6H13O2-1          ! 
C6H13O2-2          ! 
C6H13O2-3          ! 
C6H13O-1           ! 
C6H12OOH1-2        ! 
C6H12OOH1-3        ! 
C6H12OOH2-1        ! 
C6H12OOH2-3        ! 
C6H12OOH2-4        ! 
C6H12OOH2-5        ! 
C6H12OOH3-1        ! 
C6H12OOH3-2        ! 
C6H12OOH3-4        ! 
C6H12OOH3-5        ! 
C6H12OOH3-6        ! 
C6H12O1-2          ! 
C6H12O1-3          ! 
C6H12O2-3          ! 
C6H12O2-4          ! 
C6H12OOH1-2O2      ! 
C6H12OOH1-3O2      ! 
C6H12OOH2-3O2      ! 
C6H12OOH2-4O2      ! 
C6H12OOH2-5O2      ! 
C6H12OOH3-2O2      ! 
C6H12OOH3-4O2      ! 
C6H12OOH3-5O2      ! 
C6H11-1D5OOH       ! 
C6H11-2D5OOH       ! 
C6H11-3D2OOH       ! 
C6H11Q12-4         ! 
C6H11Q13-5         ! 
C6H11Q24-5         ! 
C6H11Q25-3         ! 
C6KET13            ! 
C6KET23            ! 
C6KET24            ! 
C6KET25            ! 
C6KET32            ! 
C6KET34            ! 
C6KET35            ! 
C6H11O23-5OOH      ! 
C6H11O24-5OOH      ! 
C4H7O12-4          ! 
C4H7O23-1          ! 
C5H9O23-1          ! 
C5H9O23-5          ! 
PC4H9CO            ! 
C6KET13O           ! 
C6KET23O           ! 
C6KET24O           ! 
C6KET25O           ! 
C6KET32O           ! 
C6KET34O           ! 
NC5H11CHO          ! 
C6Y2               ! 
CH3COOH            ! 
C2H5COOH           ! 
C6H12-1            ! 
C6H12-2            ! 
C6H12-3            ! 
C6H111-3           ! 
C6H111-4           ! 
C6H111-5           ! 
C6H111-6           ! 
C6H112-4           ! 
C6H112-6           ! 
C6H113-1           ! 
PC4H9CHO           ! 
PC4H8CHO-1         ! 
PC4H8CHO-2         ! 
PC4H8CHO-3         ! 
PC4H8CHO-4         ! 
C6H11-1D3O         ! 
C6H11-1D4O         ! 
C6H11-1D5O         ! 
C6H11-2D1O         ! 
C6H11-3D1O         ! 
C6H11-3D2O         ! 
NC5H11CO           ! 
NC5H10CHO-2        ! 
NC5H10CHO-3        ! 
NC5H10CHO-4        ! 
NC5H10CHO-5        ! 
C6H10D13           ! 
C6H10D24           ! 
C6H101-5           ! 
C6H9-A             ! 
NC7H16             ! 
C7H15-1            ! 
C7H15-2            ! 
C7H15-3            ! 
C7H15-4            ! 
C7H15OOH-1         ! 
C7H15OOH-2         ! 
C7H15OOH-3         ! 
C7H15OOH-4         ! 
C7H15-1O2          ! 
C7H15-2O2          ! 
C7H15-3O2          ! 
C7H15-4O2          ! 
C7H15-1O           ! 
C7H15-2O           ! 
C7H15-3O           ! 
C7H15-4O           ! 
C7H14OOH1-2        ! 
C7H14OOH1-3        ! 
C7H14OOH1-4        ! 
C7H14OOH1-5        ! 
C7H14OOH2-1        ! 
C7H14OOH2-3        ! 
C7H14OOH2-4        ! 
C7H14OOH2-5        ! 
C7H14OOH2-6        ! 
C7H14OOH3-1        ! 
C7H14OOH3-2        ! 
C7H14OOH3-4        ! 
C7H14OOH3-5        ! 
C7H14OOH3-6        ! 
C7H14OOH3-7        ! 
C7H14OOH4-1        ! 
C7H14OOH4-2        ! 
C7H14OOH4-3        ! 
C7H14O1-2          ! 
C7H14O1-3          ! 
C7H14O1-4          ! 
C7H14O1-5          ! 
C7H14O2-3          ! 
C7H14O2-4          ! 
C7H14O2-5          ! 
C7H14O2-6          ! 
C7H14O3-4          ! 
C7H14O3-5          ! 
C7H14OOH1-3O2      ! 
C7H14OOH1-4O2      ! 
C7H14OOH1-5O2      ! 
C7H14OOH2-3O2      ! 
C7H14OOH2-4O2      ! 
C7H14OOH2-5O2      ! 
C7H14OOH2-6O2      ! 
C7H14OOH3-1O2      ! 
C7H14OOH3-2O2      ! 
C7H14OOH3-4O2      ! 
C7H14OOH3-5O2      ! 
C7H14OOH3-6O2      ! 
C7H14OOH3-7O2      ! 
C7H14OOH4-1O2      ! 
C7H14OOH4-2O2      ! 
C7H14OOH4-3O2      ! 
C7H13Q13-2         ! 
C7H13Q13-4         ! 
C7H13Q13-5         ! 
C7H13Q13-6         ! 
C7H13Q14-2         ! 
C7H13Q14-3         ! 
C7H13Q14-5         ! 
C7H13Q14-6         ! 
C7H13Q15-2         ! 
C7H13Q15-3         ! 
C7H13Q15-4         ! 
C7H13Q24-1         ! 
C7H13Q24-5         ! 
C7H13Q24-6         ! 
C7H13Q25-1         ! 
C7H13Q25-3         ! 
C7H13Q25-4         ! 
C7H13Q26-3         ! 
C7H13Q35-2         ! 
C7KET13            ! 
C7KET14            ! 
C7KET23            ! 
C7KET24            ! 
C7KET25            ! 
C7KET31            ! 
C7KET32            ! 
C7KET34            ! 
C7KET35            ! 
C7KET36            ! 
C7KET37            ! 
C7KET41            ! 
C7KET42            ! 
C7KET43            ! 
C7H13-1D3OOH       ! 
C7H13-1D4OOH       ! 
C7H13-1D5OOH       ! 
C7H13-1D6OOH       ! 
C7H13-2D1OOH       ! 
C7H13-2D4OOH       ! 
C7H13-2D5OOH       ! 
C7H13-2D6OOH       ! 
C7H13-2D7OOH       ! 
C7H13-3D1OOH       ! 
C7H13-3D2OOH       ! 
C7H13-3D5OOH       ! 
C7H13-3D6OOH       ! 
C7H13-3D7OOH       ! 
C7H13O12-4OOH      ! 
C7H13O12-5OOH      ! 
C7H13O14-3OOH      ! 
C7H13O15-3OOH      ! 
C7H13O23-5OOH      ! 
C7H13O23-6OOH      ! 
C7H13O24-1OOH      ! 
C7H13O24-5OOH      ! 
C7H13O24-7OOH      ! 
C7H13O25-3OOH      ! 
C7H13O25-4OOH      ! 
C7H13O25-7OOH      ! 
C7H13O26-4OOH      ! 
C7H13O34-1OOH      ! 
C7H13O34-6OOH      ! 
C7H13O34-7OOH      ! 
C7H13O35-1OOH      ! 
C7H13O35-2OOH      ! 
C7KET13O           ! 
C7KET14O           ! 
C7KET23O           ! 
C7KET24O           ! 
C7KET25O           ! 
C7KET31O           ! 
C7KET32O           ! 
C7KET34O           ! 
C7KET35O           ! 
C7KET36O           ! 
C7KET37O           ! 
C7KET41O           ! 
C7KET42O           ! 
C7KET43O           ! 
C7Y24              ! 
C7Y13              ! 
C7Y35              ! 
C7H14OOH1-3O       ! 
C7H14OOH4-2O       ! 
C6H11O23-1         ! 
C6H11O24-1         ! 
C6H11O24-6         ! 
C6H11O34-1         ! 
C6Y2-1J            ! 
C6Y3-6J            ! 
C6Y3-1J            ! 
C7H14-1            ! 
C7H14-2            ! 
C7H14-3            ! 
C7H131-3           ! 
C7H131-4           ! 
C7H131-5           ! 
C7H131-6           ! 
C7H131-7           ! 
C7H132-4           ! 
C7H132-5           ! 
C7H132-6           ! 
C7H132-7           ! 
C7H133-1           ! 
C7H133-5           ! 
C7H133-6           ! 
C7H133-7           ! 
C7H13-1D3O         ! 
C7H13-2D4O         ! 
C7H13-3D5O         ! 
C7H14OH-1J2        ! 
C7H14OH-2J1        ! 
C7H14OH-2J3        ! 
C7H14OH-3J2        ! 
C7H14OH-3J4        ! 
C7H14OH-4J3        ! 
C7H14OH-1O2-2      ! 
C7H14OH-2O2-1      ! 
C7H14OH-2O2-3      ! 
C7H14OH-3O2-2      ! 
C7H14OH-3O2-4      ! 
C7H14OH-4O2-3      ! 
C5D2Y1             ! 
C5D2Y1-1R          ! 
C3Y1-3OR           ! 
C4Y1-3OR           ! 
C6D2Y1             ! 
C6D2Y1-1R          ! 
C6H2               ! 
C6H6               ! 
FULVENE            ! 
C6H5               ! 
C6H5O              ! 
C5H6               ! 
C5H5               ! 
C#CCVCCJ           ! 
C5H7               ! 
CVCCJCVC           ! 
CVCCVCCJ           ! 
OC5H7O             ! 
C5H5O              ! 
C5H4O              ! 
C5H3O              ! 
CJVCCVCCVO         ! 
CVCCVCCJVO         ! 
CJVCCVO            ! 
END


REACTIONS  CAL/MOLE  MOLES
! ++++++++++++++++++++++++++++++++++++++++++++++++++++++++++++++++++++++++++++++++++++++++++++++++++++++++++++++++++++++++++++++++++++++++++++++++++++++++++++++
! \KINETICS_MODULE: \H2_O2
! \MODSUBMECHS:
! ++++++++++++++++++++++++++++++++++++++++++++++++++++++++++++++++++++++++++++++++++++++++++++++++++++++++++++++++++++++++++++++++++++++++++++++++++++++++++++++
! ------------------------------------------------------------------------------
! \SUBMECH: \H2
! ------------------------------------------------------------------------------
! ______________________________________________________________________________
! \REACTIONCLASS: \UNIMOL                          \A             \N        \EA
! ______________________________________________________________________________
H2 + M <=> 2 H + M                                    4.5770000E+019   -1.4000000E+000    1.0440000E+005    ! \AUTHOR: AK !\REF: TSANG AND HAMPSON, J. PHYS. CHEM. REF. DATA, 15:1087 (1986)
   C2H6/ 3.000/  CH4/ 2.000/  CO/ 1.900/  CO2/ 3.800/  H2/ 2.500/  H2O/ 12.000/  HE/ 0.830/
! ______________________________________________________________________________
! \REACTIONCLASS: \ABSTRACTION                     \A             \N        \EA
! ______________________________________________________________________________
! \SITE: \UNDEF
O + H2 <=> OH + H                                     5.0800000E+004    2.6700000E+000    6.2920000E+003    ! \AUTHOR: AK !\REF:SUTHERLAND ET AL., 21ST SYMPOSIUM, P. 929 (1986)
OH + H2 <=> H2O + H                                   4.3800000E+013    0.0000000E+000    6.9900000E+003    ! \AUTHOR: AK !\REF:LAM ET AL. SUBMITTED IJCK
! ------------------------------------------------------------------------------
! \ENDSUBMECH: \H2
! ------------------------------------------------------------------------------
! ------------------------------------------------------------------------------
! \SUBMECH: \O2
! ------------------------------------------------------------------------------
! ______________________________________________________________________________
! \REACTIONCLASS: \UNIMOL                          \A             \N        \EA
! ______________________________________________________________________________
2 O + M <=> O2 + M                                    6.1650000E+015   -5.0000000E-001    0.0000000E+000    ! \AUTHOR: AK !\REF: TSANG AND HAMPSON, J. PHYS. CHEM. REF. DATA, 15:1087 (1986)
   C2H6/ 3.000/  CH4/ 2.000/  CO/ 1.900/  CO2/ 3.800/  H2/ 2.500/  H2O/ 12.000/  HE/ 0.830/
! ______________________________________________________________________________
! \REACTIONCLASS: \RADICAL_ADDITION\H              \A             \N        \EA
! ______________________________________________________________________________
O2 + H <=> OH + O                                     1.0400000E+014    0.0000000E+000    1.5286000E+004    ! \AUTHOR: AK !\REF: HONG ET AL. PROC. OF THE COMB. INST. 33 (2011) 309      C316
! ------------------------------------------------------------------------------
! \ENDSUBMECH: \O2
! ------------------------------------------------------------------------------
! ------------------------------------------------------------------------------
! \SUBMECH: \H2O
! ------------------------------------------------------------------------------
! ______________________________________________________________________________
! \REACTIONCLASS: \UNIMOL                          \A             \N        \EA
! ______________________________________________________________________________
OH + H + M <=> H2O + M                                3.5000000E+022   -2.0000000E+000    0.0000000E+000    ! \AUTHOR: AK !\REF: LI IJCK 36: 566      C575, 2004
   C2H6/ 3.000/  CH4/ 2.000/  H2/ 0.730/  H2O/ 3.650/
H2O + O <=> 2 OH                                      6.7000000E+007    1.7040000E+000    1.4986800E+004    
! ______________________________________________________________________________
! \REACTIONCLASS: \RADICAL_ALPHA_SCISSION          \A             \N        \EA
! ______________________________________________________________________________
O + H + M <=> OH + M                                  4.7140000E+018   -1.0000000E+000    0.0000000E+000    ! \AUTHOR: AK !\REF: TSANG AND HAMPSON, J. PHYS. CHEM. REF. DATA, 15:1087 (1986)
   C2H6/ 3.000/  CH4/ 2.000/  CO/ 1.500/  CO2/ 2.000/  H2/ 2.500/  H2O/ 12.000/  HE/ 0.750/
! ==============================================================================
! \SUBSPECIES: \OHV
! ==============================================================================
! ______________________________________________________________________________
! \REACTIONCLASS: \RADICAL_ALPHA_SCISSION
! ______________________________________________________________________________
O + H + M <=> OHV + M                                 1.5000000E+013    0.0000000E+000    5.9750000E+003    ! \AUTHOR: AK !\REF:KATHROTIA ET AL. COMB _ FLAME 2010
   H2/ 1.000/  H2O/ 6.500/  N2/ 0.400/  O2/ 0.400/
! ______________________________________________________________________________
! \REACTIONCLASS: \DEACTIVATION
! ______________________________________________________________________________
H2O + OHV <=> H2O + OH                                5.9300000E+012    5.0000000E-001   -8.6000000E+002    ! \AUTHOR: AK !\REF:KATHROTIA ET AL. COMB _ FLAME 2010
OHV + H2 <=> OH + H2                                  2.9500000E+012    5.0000000E-001   -4.4400000E+002    ! \AUTHOR: AK !\REF:KATHROTIA ET AL. COMB _ FLAME 2010
N2 + OHV <=> N2 + OH                                  1.0800000E+011    5.0000000E-001   -1.2420000E+003    ! \AUTHOR: AK !\REF:KATHROTIA ET AL. COMB _ FLAME 2010
OHV + OH <=> 2 OH                                     6.0100000E+012    5.0000000E-001   -7.6400000E+002    
OHV + H <=> OH + H                                    1.3100000E+012    5.0000000E-001   -1.6700000E+002    ! \AUTHOR: AK !\REF:KATHROTIA ET AL. COMB _ FLAME 2010
OHV <=> OH                                            1.4500000E+006    0.0000000E+000    0.0000000E+000    ! \AUTHOR: AK !\REF:KATHROTIA ET AL. COMB _ FLAME 2010
O2 + OHV <=> O2 + OH                                  2.1000000E+012    5.0000000E-001   -4.7800000E+002    ! \AUTHOR: AK !\REF:KATHROTIA ET AL. COMB _ FLAME 2010
CO2 + OHV <=> CO2 + OH                                2.7500000E+012    5.0000000E-001   -9.6800000E+002    ! \AUTHOR: AK !\REF:KATHROTIA ET AL. COMB _ FLAME 2010
CO + OHV <=> CO + OH                                  3.2300000E+012    5.0000000E-001   -7.8700000E+002    ! \AUTHOR: AK !\REF:KATHROTIA ET AL. COMB _ FLAME 2010
OHV + CH4 <=> OH + CH4                                3.3600000E+012    5.0000000E-001   -6.3500000E+002    ! \AUTHOR: AK !\REF:KATHROTIA ET AL. COMB _ FLAME 2010
! ==============================================================================
! \ENDSUBSPECIES: \OHV
! ==============================================================================
! ------------------------------------------------------------------------------
! \ENDSUBMECH: \H2O
! ------------------------------------------------------------------------------
! ------------------------------------------------------------------------------
! \SUBMECH: \H2O2
! ------------------------------------------------------------------------------
! ______________________________________________________________________________
! \REACTIONCLASS: \UNIMOL                          \A             \N        \EA
! ______________________________________________________________________________
H2O2 (+M) <=> 2 OH (+M)                               2.0000000E+012    9.0000000E-001    4.8749000E+004    ! \AUTHOR: AK !\REF: TROE, COMBUST. FLAME, 158:594-601 (2011)
                                             LOW /    2.4900000E+024   -2.3000000E+000    4.8749000E+004 /
                                           TROE /  4.3000000E-001    1.0000000E-030    1.0000000E+030 /
   CO/ 2.800/  CO2/ 1.600/  H2/ 3.700/  H2O/ 7.650/  H2O2/ 7.700/  HE/ 0.650/  N2/ 1.500/  O2/ 1.200/
! ______________________________________________________________________________
! \REACTIONCLASS: \RH_R_ABSTRACTION                \A             \N        \EA
! ______________________________________________________________________________
H2O2 + H <=> H2O + OH                                 2.4100000E+013    0.0000000E+000    3.9700000E+003    ! \AUTHOR: AK !\REF:TSANG AND HAMPSON, J. PHYS. CHEM. REF. DATA, 15:1087 (1986)
H2O2 + H <=> HO2 + H2                                 2.1500000E+010    1.0000000E+000    6.0000000E+003    ! \AUTHOR: AK !\REF: ELLINGSON J. PHYS. CHEM. (2007) 111, (51), 13554-13566
H2O2 + O <=> HO2 + OH                                 9.5500000E+006    2.0000000E+000    3.9700000E+003    ! \AUTHOR: AK !\REF:TSANG AND HAMPSON, J. PHYS. CHEM. REF. DATA, 15:1087 (1986)
H2O2 + OH <=> HO2 + H2O                               1.7400000E+012    0.0000000E+000    3.1800000E+002    
   DUPLICATE
H2O2 + OH <=> HO2 + H2O                               7.5900000E+013    0.0000000E+000    7.2690000E+003    
   DUPLICATE
HO2 + H <=> 2 OH                                      7.0790000E+013    0.0000000E+000    2.9500000E+002    
HO2 + H <=> O2 + H2                                   1.1402000E+010    1.0827000E+000    5.5378000E+002    ! \AUTHOR: AK  !\REF:MICHAEL SUTHERLAND 2000
HO2 + O <=> O2 + OH                                   3.2500000E+013    0.0000000E+000    0.0000000E+000    ! \AUTHOR: AK  !\REF:BAULCH ET AL., J. PHYS. CHEM. REF DATA, 21:411 (1992)
HO2 + OH <=> O2 + H2O                                 7.0000000E+012    0.0000000E+000   -1.0929600E+003    
   DUPLICATE
HO2 + OH <=> O2 + H2O                                 4.5000000E+014    0.0000000E+000    1.0929600E+004    
   DUPLICATE
2 HO2 <=> H2O2 + O2                                   1.0000000E+014    0.0000000E+000    1.1040883E+004    
   DUPLICATE
2 HO2 <=> H2O2 + O2                                   1.9000000E+011    0.0000000E+000   -1.4089248E+003    
   DUPLICATE
! ______________________________________________________________________________
! \REACTIONCLASS: \RADICAL_ALPHA_SCISSION          \A             \N        \EA
! ______________________________________________________________________________
O2 + H (+M) <=> HO2 (+M)                              4.6500000E+012    4.4000000E-001    0.0000000E+000    ! \AUTHOR: AK !\REF:FERNANDES PCCP 2008 !COMMENT: Efficiencis of AR and HE derived from seperated reactions, otherwise lead to error in flame extinction simulation
                                             LOW /    1.7370000E+019   -1.2300000E+000    0.0000000E+000 /
                            TROE /  6.7000000E-001    1.0000000E-030    1.0000000E+030    1.0000000E+030 /
   C2H6/ 3.000/  CH4/ 2.000/  CO/ 1.900/  CO2/ 3.800/  H2/ 1.300/  H2O/ 10.000/  HE/ 0.640/
! ------------------------------------------------------------------------------
! \ENDSUBMECH: \H2O2
! ------------------------------------------------------------------------------
! ++++++++++++++++++++++++++++++++++++++++++++++++++++++++++++++++++++++++++++++++++++++++++++++++++++++++++++++++++++++++++++++++++++++++++++++++++++++++++++++
! \END_KINETICS_MODULE: \H2_O2
! ++++++++++++++++++++++++++++++++++++++++++++++++++++++++++++++++++++++++++++++++++++++++++++++++++++++++++++++++++++++++++++++++++++++++++++++++++++++++++++++
! ++++++++++++++++++++++++++++++++++++++++++++++++++++++++++++++++++++++++++++++++++++++++++++++++++++++++++++++++++++++++++++++++++++++++++++++++++++++++++++++
! \KINETICS_MODULE: \C1
! \MODSUBMECHS: CO, CH2O, CH4,
! ++++++++++++++++++++++++++++++++++++++++++++++++++++++++++++++++++++++++++++++++++++++++++++++++++++++++++++++++++++++++++++++++++++++++++++++++++++++++++++++
! ------------------------------------------------------------------------------
! \SUBMECH: \CO
! ------------------------------------------------------------------------------
! ______________________________________________________________________________
! \REACTIONCLASS: \RADICAL_ADDITION\O              \A             \N        \EA
! ______________________________________________________________________________
CO + O (+M) <=> CO2 (+M)                              1.3620000E+010    0.0000000E+000    2.3840000E+003    ! \AUTHOR: !\REF: MEULLER 99 * 0.76
                                             LOW /    1.1730000E+024   -2.7900000E+000    4.1910000E+003 /
   CO/ 1.750/  CO2/ 3.600/  H2/ 2.000/  H2O/ 12.000/  HE/ 0.700/
CO + OH <=> CO2 + H                                   7.0150000E+004    2.0530000E+000   -3.5570000E+002    
   DUPLICATE
CO + OH <=> CO2 + H                                   5.7570000E+012   -6.6400000E-001    3.3180000E+002    
   DUPLICATE
! ______________________________________________________________________________
! \REACTIONCLASS: \RADICAL_ADDITION\HO2            \A             \N        \EA
! ______________________________________________________________________________
HO2 + CO <=> CO2 + OH                                 1.5700000E+005    2.1800000E+000    1.7940000E+004    ! \AUTHOR: !\REF: YOU ET AL. J. PHYS. CHEM. A 2007, 111, 4031-4042
! ______________________________________________________________________________
! \REACTIONCLASS: \R+O2                            \A             \N        \EA
! ______________________________________________________________________________
O2 + CO <=> CO2 + O                                   1.1190000E+012    0.0000000E+000    4.7700000E+004    ! \AUTHOR: !\REF: 86TSA/ HAM * 0.44
! ==============================================================================
! \SUBSPECIES: \CO2
! ==============================================================================
! _____________________________________________________________________________
! \REACTIONCLASS: \RADICAL_ADIDTION\H
! ______________________________________________________________________________
CO2 + H <=> OCHO                                      7.5000000E+013    0.0000000E+000    2.9000000E+004    ! \AUTHOR: !\REF: CURRAN ESTIMATE