
ELEMENTS  
C H N O AR HE  
END  
SPECIES  
N2  
AR 
H2 
H 
O2 
O 
H2O  
OHS2 
H2O2  
HO2  
CO 
CO2  
CH4  
CH3  
CH2  
CH3O2H  
CH3O2  
CH3OH  
CH3O  
CH2OH  
CH2O  
HCO  
HO2CHO  
O2CHO  
C2H6  
C2H5  
C2H5O2H  
C2H5O2  
C2H4  
C2H3  
C2H3OO  
C2H2  
C2H  
C2H5O  
CH3CHO  
CH3CO  
CH2CHO  
CH2CO  
HCCO  
C3H8  
IC3H7  
IC3H7O2  
IC3H7O  
C3H6  
C3H5 -A 
C3H5 -S 
C3H5 -T 
C3H5O  
AC3H5OOH  
C3H4 -P 
C3H4 -A 
C3H3  
C3H3O  
C2H3CHO  
C2H3CO  
CH3COCH2  
IC4H9  
TC4H9  
IC3H5CO  
IC4H9O2  
TC4H9O2  
IC4H8O2H -I 
IC4H8O2H -T 
IC4H8  
IC4H7  
IC4H7 -I1 
IC4H7O  
C4H8 -1 
C4H6  
C6H101 -5 
C6H9 -A 
C8H18 -25 
C8H17  
C8H17 -OO 
C8-QOOH  
C8-OOQOOH  
C8-KET  
C6H13CO  
NC3H7  
NC3H7O2  
NC3H7O  
C3H6OOH1 -2 
C3H6O1 -2 
CH3CHCHO  
CH3CHCO  
PC4H9  
C4H72 -1OOH  
C4H71 -3OOH  
C4H71 -1 
C4H71 -3 
C4H71 -1O2 
C3H6CHO -3 
NC12H26  
C12H25  
C12H25 -OO 
C12-QOOH  
C12-OOQOOH  
C12-KET  
C12H24  
C12H23  
HE 
OHV  
CH2(S)  
CH 
CHV  
HCOH  
HOCH2O  
HOCHO  
OCHO  
CHCHO  
C8H9  
C8H9O  
C8H9OO  
C9H12  
C8H9CH2  
C7H9  
C8H9CH2O  
C8H9CHO  
C8H9CO  
C7H9O  
C6H9  
C8H10  
PC2H4OH  
O2C2H4OH  
C4H5 -N 
C6H6  
C5H4O  
Decalin  
RDecalin  
RDec -OO 
Dec-QOOH  
Dec-OOQOOH  
Dec-KET  
CYC6H10  
CYC6H9 -3 
C4H7  
DCYC10H16  
DCLD1 -3R 
C8H12  
X135C6H7 -3R 
LC5H7  
CYC5H5  
CYC5H6  
CYC6H8 -13 
C6H9 -13-6 
N  
NH  
NNH  
NO  
NO2  
N2O  
HNO  
HCN  
END  

REACTIONS 


H2+M=2H+M    4.577E19 -1.4 1.044E5  
    H2/2.5/  
    H2O/12.0/  
    CO/1.9/  
    CO2/3.8/  
    CH4/2.0/  
    C2H6/3.0/  

 

H2+O=H+OH    5.08E4 2.67 6.292E3  
H2+OH=H+H2O    4.38E13 0.0 6.99E3  
 
2O+M=O2+M    6.165E15 -0.5 0.0E0  
    H2/2.5/  
    H2O/12.0/  
    CO/1.9/  
    CO2/3.8/  
    CH4/2.0/  
    C2H6/3.0/  
 
PARAMETER FIT  
O2+H=O+OH    1.04E14 0.0 1.5286E4  
 
H+OH+M=H2O+M    3.5E22 -2.0 0.0E0  
    H2/0.73/  
    H2O/3.65/  
    CH4/2.0/  
    C2H6/3.0/  
 
O+H2O=2OH    6.7E7 1.704 1.49868E4  
 
O+H+M=OH+M    4.714E18 -1.0 0.0E0  
    H2/2.5/  
    H2O/12.0/  
    CO/1.5/  
    CO2/2.0/  
    CH4/2.0/  
    C2H6/3.0/  
 
H2O2(+M)=2OH(+M)    2.0E12 0.9 4.8749E4  
    H2O/7.65/  
    CO2/1.6/  
    N2/1.5/  
    O2/1.2/  
    H2O2/7.7/  
    H2/3.7/  
    CO/2.8/  
    LOW/2.49E24 -2.3E0 4.8749E4/  
    TROE/4.3E -1 1.0E -30 1.0E30/  
H2O2+H=H2O+OH    2.41E13 0.0 3.97E3  
H2O2+H=H2+HO2    2.15E10 1.0 6.0E3  
H2O2+O=OH+HO2    9.55E6 2.0 3.97E3  
H2O2+OH=H2O+HO2    1.74E12 0.0 3.18E2  
    DUP  
H2O2+OH=H2O+HO2    7.59E13 0.0 7.269E3  
    DUP  
 
HO2+H=2OH    7.079E13 0.0 2.95E2  
HO2+H=H2+O2    1.1402E10 1.0827 5.5378E2  
HO2+O=OH+O2    3.25E13 0.0 0.0E0  
OH+HO2=H2O+O2     7.0E12 0.0 -1.09296E3  
    DUP  
OH+HO2=H2O+O2    4.5E14 0.0 1.09296E4  
    DUP  
2HO2=H2O2+O2    1.0E14 0.0 1.1040883E4  
    DUP  
2HO2=H2O 2+O2    1.9E11 0.0 -1.4089248E3  
    DUP  
 
seperated reactions,  
H+O2(+M)=HO2(+M)    4.65E12 0.44 0.0E0  
    H2/1.3/  
    CO/1.9/  
    CO2/3.8/  
    H2O/10.0/  
    CH4/2.0/  
    C2H6/3.0/  
    LOW/1.737E19 -1.23E0 0.0E0/  
    TROE/6.7E -1 1.0E -30 1.0E30 1.0E30/  
MECHANISM  
BEEN MULTIPLIED BY 1.5  
CO+O(+M)=CO2(+M)    1.362E10 0.0 2.384E3  
    H2/2.0/  
    H2O/12.0/  
    CO/1.75/  
    CO2/3.6/  
    LOW/1.173E24 -2.79E0 4.191E3/  
CO+OH=CO2+H    7.015E4 2.053 -3.557E2  
    DUP  
CO+OH=CO2+H    5.757E12 -0.664 3.318E2  
    DUP  
 
CO+HO2=CO2+OH    1.57E5 2.18 1.794E4  
 
CO+O2=CO2+O    1.119E12 0.0 4.77E4  
- 
 
CH3+H(+M)=CH4(+M)    1.27E16 -0.63 3.83E2  
    H2/2.0/  
    H2O/6.0/  
    CO/1.5/  
    CO2/2.0/  
    CH4/2.0/  
    C2H6/3.0/  
    LOW/2.477E33 -4.76E0 2.44E3/  
    TROE/7.83E -1 7.4E1 2.941E3 6.964E3/  
 
CH4+H=CH3+H2    6.14E5 2.5 9.587E3  
MECHA NISM?  
CH4+O=CH3+OH    1.02E9 1.5 8.6E3  
CH4+OH=CH3+H2O    5.83E4 2.6 2.19E3  
CH4+HO2=CH3+H2O2    1.13E1 3.74 2.101E4  
RATE CONSTANT??  
CH4+CH3O2=CH3+CH3O2H    9.6E -1 3.77 1.78 1E4 
CH3+HO2=CH4+O2    1.16E5 2.23 -3.022E3  
 
CH4+CH2=2CH3    2.46E6 2.0  8.27E3  
CH2+H(+M)=CH3(+M)    2.5E16 -0.8 0.0E0  
    H2/2.0/  
    H2O/6.0/  
    CO/1.5/  
    CO2/2.0/  
    CH4/2.0/  
    C2H6/3.0/  
    LOW/3.2E27 -3.14E0 1.23E3/  
    TROE/6.8E -1 7.8E1 1.995E3 5.59E3/  
 
CH2+O2=HCO+OH    1.06E13 0.0 1.5E3  
CH2+O2=>CO2+2H    2.64E12 0.0 1.5E3  
CH2+O=>CO+2H    5.0E13 0.0 0.0E0  
CH3+O2(+M)=CH3O2(+M)    7.812E9 0.9 0.0E0  
    LOW/6.85E24 -3.0E0 0.0E0/  
    TROE/6.0E -1 1.0E3 7.0E1 1.7E3/  
CH3+O2=CH3O+O    7.546E12 0.0 2.832E4  
WARNING: HAS THIS BEEN PUBLISHED?  
CH3+O2=CH2O+OH    2.641E0 3.283 8.105E3  
 
CH3+O=CH2O+H    5.54E13 0.05 -1.36E 2 
CH3+OH=CH2O+H2    3.502E5 1.441 -3.244E3  
    PLOG/1.0E -2 3.502E5 1.441E0 -3.244E3/  
    PLOG/1.0E -1 8.854E5 1.327E0 -2.975E3/  
    PLOG/1.0E0 1.65E7 9.73E -1 -2.01E3/  
    PLOG/1 .0E1 5.374E9 2.87E -1 2.8E2/  
    PLOG/1.0E2 9.494E18 -2.199E0 9.769E3/  
INCREASED BY FACTOR OF 2  
CH3+OH=CH2OH+H    1.621E10 0.965 3.21E3  
    PLOG/1.0E -2 1.621E10 9.65E -1 3.214E3/  
    PLOG/1.0E -1 1.807E10 9.5E -1 3.247E3/  
    PLOG/1.0E0 4.686E10 8.33E -1 3.566E3/  
    PLOG/1.0E1 1.525E13 1.34E -1 5.641E3/  
    PLOG/1.0E2 3.59E14 -1.86E -1 8.601E3/  
CH3+OH=H+CH3O    1.186E9 1.016 1.194E4  
    PLOG/1.0E -2 1.186E9 1.016E0 1.194E4/  
    PLOG/1.0E -1 1.188E9 1.016E0 1.194E4/  
    PLOG/1.0E0 1.23E9 1.011E0 1.195E4/  
    PLOG/1.0E1 1.798E9 9.65E -1 1.206E4/  
    PLOG/1.0E2 5.242E10 5.51E -1 1.307E4/  
CH3+OH=CH2+H2O    4.293E4 2.568 3.9978E3  
 
CH3+ HO2=CH3O+OH    1.0E12 0.269 -6.875E2  
CH3O2+O=CH3O+O2    3.6E13 0.0 0.0E0  
CH3O2+H=CH3O+OH    9.6E13 0.0 0.0E0  
CH3O2+OH=CH3OH+O2    6.0E13 0.0 0.0E0  
CH3O2+HO2=CH3O2H+O2    2.47E11 0.0 -1.57E3  
29/07/2015  
CH3O2+H2O2=CH3O2H+ HO2    2.41E12 0.0 9.936E3  
CH3O2+CH3=2CH3O    5.08E12 0.0 -1.411E3  
2CH3O2=>CH2O+CH3OH+O2    3.11E14 -1.61 -1.051E3  
2CH3O2=>O2+2CH3O    1.4E16 -1.61 1.86E3  
H2+CH3O2=H+CH3O2H    1.5E14 0.0 2.603E4  
 
CH3O2H=CH3O+OH    6.31E14 0.0 4.23E4  
FORMALDEHYDE OXIDATION, AND MINOR FOR CH4/CH3OH  
CH3OH(+M)=CH3+OH(+M)    2.084E18  -0.615 9.25406E4  
    LOW/1.5E43 -6.995E0 9.79922E4/  
    TROE/ -4.748E -1 3.558E4 1.116E3 9.023E3/  
NEGLECTING HCOH CHANNELS AS THEY ARE NOT IMPORTANT  
CH3OH(+M)=CH2OH+H(+M)    7.896E -3 5.038 8.44674E4  
    LOW/3.39E42 -7.244E0 1.052303E5/  
    TROE/ -7.391E1 3.705E4 4.15E4 5.22E3/  
 
CH3OH+H=CH3O+H2    1.99E5 2.56 1.03E4  
CH3OH+H=CH2OH+H2    3.07E5 2.55 5.44E3  
magnitude from abstraction from the methyl site  
CH3OH+O=CH3O+OH    3.88E4 2.5 3.08E3  
CH3OH+O=CH2OH+OH    3.88E5 2.5 3.08E3  
CH3OH+OH=CH3O+H2O    1.5E2 3.03 -7.63E2  
CH3OH+OH=CH2OH+H2O    3.08E4 2.65 -8.067E2  
21/08/15  
351-357 
CH3OH+O2=CH3O+HO2    3.58E4 2.27 4.27645E4  
increased bond strengths, Ultan added 21/08/15  
CH3OH+O2=CH2OH+HO2    3.58E5 2.27 4.27645E4  
CH3OH+HO2=CH3O+H2O2    1.22E12 0.0 2.00707E4  
CH3OH+HO2=CH2OH+H2O2    3.26E13 0.0 1.87822E4  
Ultan add ed 21/08/15  
CH3OH+CH3=CH2OH+CH4    2.13E -1 3.953 7.0551E3  
Ultan added 21/08/15  
CH3OH+CH3=CH3O+CH4    3.22E3 2.425 8.5795E3  
CH3OH+HCO=CH2OH+CH2O    9.63E3 2.9 1.311E4  
CH3OH+CH3O=CH2OH+CH3OH    3.0E11 0.0 4.074E3  
CH3OH+CH3O2=CH2OH+CH3O2H    1.81E12 0.0 1.371E4  
CH2OH+O2=CH2O+HO2    1.51E15 -1.0 0.0E0  
    DUP  
CH2OH+O2=CH2O+HO2    2.41E14 0.0 5.017E3  
    DUP  
CH2OH+H=CH2O+H2    6.0E12 0.0 0.0E0  
CH2OH+HO2=CH2O+H2O2    1.2E13 0.0 0 .0E0 
CH2OH+HCO=2CH2O    1.8E14 0.0 0.0E0  
CH2OH+HCO=CH3OH+CO    1.0E13 0.0 0.0E0  
CH2OH+CH3O=CH2O+CH3OH    2.4E13 0.0 0.0E0  
CH2OH+OH=H2O+CH2O    2.4E13 0.0 0.0E0  
CH2OH+O=OH+CH2O    4.2E13 0 .0 0.0E0  
2CH2OH=CH2O+CH3OH    3.0E12 0.0 0.0E0  
CH3O+O2=CH 2O+HO2    4.38E -19 9.5 -5.501E3  
CH3O+H=CH2O+H2    2.0E13 0.0 0.0E0  
CH3O+HO2=CH2O+H2O2    3.01E11 0.0 0.0E0  
CH3O+CH3=CH2O+CH4    1.2E13 0.0 0.0E0  
2CH3O=CH3OH+CH2O    6.03E13 0.0 0.0E0  
HCO+H(+M)=CH2O(+M)    1.09E12 0.48 -2.6E2  
    H2/2.0/  
    H2O/6.0/  
    CO/1.5/  
    CO2/2.0/  
    CH4/2.0/  
    C2H6/3.0/  
    LOW/1.35E24 -2.57E0 1.425E3/  
    TROE/7.824E -1 2.71E2 2.755E3 6. 57E3/  
CO+H2(+M)=CH2O(+M)    4.3E7 1.5 7.96E4  
    H2/2.0/  
    H2O/6.0/  
    CO/1.5/  
    CO2/2.0/  
    CH4/2.0/  
    C2H6/3.0/  
    LOW/5.07E27 -3.42E0 8.4348E4/  
    TROE/9.32E -1 1.97E2 1.54E3 1.03E4/  
 
CH2O+O2=HCO+HO2    8.07E15 0.0 5.342E4  
CH2O+O=HCO+OH    6.26E9 1.15 2.26E3  
CH2O+H=HCO+H2    5.74E7 1.9 2.74E3  
CH2O+OH=HCO+H2O    7.82E7 1.63 -1.055E3  
CH2O+HO2=HCO +H2O2    1.88E4 2.7 1.152E4  
CH2O+CH3=HCO+CH4    3.83E1 3.36 4.312E3  
CH2O +O2CHO=HCO+HO2CHO    1.99E12 0.0 1.166E4  
CH2O+CH3O=HCO+CH3OH    6.62E11 0.0 2.294E3  
CH2O+CH3O2= HCO+CH3O2H    1.99E12 0.0 1.166E4  
 
HCO+M=H+CO+M    5.7E11 0.66 1.487E4  
    H2/2.0/  
    H2O/6.0/  
    CO/1.5/  
    CO2/2.0/  
    CH4/2.0/  
    C2H6/3.0/  
 
HCO+O2=CO+HO2    7.58E12 0.0 4.1E2  
HCO+O=CO+OH    3.02E13 0.0 0.0E0  
HCO+H=CO+H2    7.34E13 0.0 0.0E0  
HCO+ OH=CO+H2O    3.011E13 0.0 0.0E0  
HCO+CH3=CH4+CO    2.65E13 0.0 0.0E0  
2HCO=CH2O+CO    1.8E13 0.0 0 .0E0 
 
HCO+O=CO2+H    3.0E13 0.0 0.0E0  
HCO+HO2=>CO2+H+OH    3.0E13 0.0 0.0E0  
2HCO=>H2+2CO    3.0E12 0.0 0.0E0  
 
CH2O+H(+M)=CH2OH(+M)    5.4E11 0.454 3.6E3  
    H2/2.0/  
    H2O/6.0/  
    CO/1.5/  
    CO2/2.0/  
    CH4/2.0/  
    C2H6/3.0/  
    LOW/1.27E32 -4.82E0 6.53E3/  
    TROE/7.187E -1 1.03E2 1.291E3 4.16E3/  
CH3O(+M)=CH2O+H(+M)    6.8E13 0.0 2.617E4  
    H2/2.0/  
    H2O/6.0/  
    CO/1.5/  
    CO2/2.0/  
    CH4/2.0/  
    C2H6/3.0/  
    LOW/1.867E25 -3.0E0 2.4307E4/  
    TROE/9.0E -1 2.5E3 1.3E3 1.0E99/  
 
CONSTANT?  
HCO+O2=O2CHO    1.2E11 0.0 -1.1E3  
2CH3(+M)=C2H6(+M)    2.277E15 -0.69 1.749E2  
    H2O/5.0/  
    CO/2.0/  
    CO2/3.0/  
    LOW/8.054E31 -3.75E0 9.816E2/  
    TROE/0.0E0 5.7E2 1.0E30 1.0E30/  
C2H5+H(+M)=C2H6(+M)    5.21E17 -0.99 1.58E3  
    H2/2.0/  
    H2O/6.0/  
    CO/1.5/  
    CO2/2.0/  
    CH4/2.0/  
    C2H6/3.0/  
    LOW/1.99E41 -7.08E0 6.685E3/  
    TROE/8.42E -1 1.25E2 2.219E3 6.882E3/  
 
C2H6+O2=C2H5+HO2    6.03E13 0.0 5.187E4  
C2H6+O=C2H5+OH    3.55E6 2.4 5.83E3  
C2H6+H=C2H5+H2    1.15E8 1.9 7.53E3  
ORIGINAL SOURCE OF NIST DATA?  
C2H6+OH=C2H5+H2O    1.48E7 1.9 9.5E2  
C2H6+HO2=C2H5+H2O2    3.46E1 3.61 1.692E4  
C2H6+CH3=C2H5+CH4    5.55E -4 4.72 3.231E3  
C2H6+CH3O=C2H5+CH3OH    2.41E11 0.0 7.09 E3 
C2H6+CH3O2=C2H5+CH3O2H    1.94E1 3.64 1.71E4  
C2H6+C2H5O2=C2H5+C2H5O2H    8.6E0 3.76 1.7 2E4 
 
LIMIT*0.7  
C2H4+H(+M)=C2H5(+M)    9.569E8 1 .463 1.355E3  
    H2/2.0/  
    H2O/6.0/  
    CH4/2.0/  
    CO/1.5/  
    CO2/2.0/  
    C2H6/3.0/  
    LOW/1.419E39 -6.642E0 5.769E3/  
    TROE/ -5.69E -1 2.99E2 -9.147E3 1.524E2/  
 
WHAT IS SOURCE OF ORIGINAL DATA? EXPERIMENT? THEORY?  
C2H5+H=C2H4+H2    2.0E12 0.0 0.0E0  
2C2H4=C2H5+C2H3    4.82E14 0.0 7.153E4  
C2H5+CH3=CH4+C2H4    1.18E4 2.45 -2.921E3  
 
C2H5+O=CH3CHO+H    1.1E14 0.0 0.0E0  
C2H5+HO2=C2H5O+OH    1.1E13 0.0 0.0E0  
C2H5+CH3O2=C2H5O+CH3O    8.0E12 0.0 -1.0E3  
 
2CH3=H+C2H5    4.74E12 0.105 1.06643E4  
    PLOG/1.0E -2 4.74E12 1.05E -1 1.06643E4/  
    PLOG/1.0E -1 2.57E13 -9.6E-2 1.14061E4/  
    PLOG/1.0E0 3.1E14 -3.62E -1 1.3372 5E4/  
    PLOG/1.0E1 2.15E10 8.85E -1 1.35325E4/  
    PLOG/1.0E2 1.032E2 3.23E0 1.12361E4/  
 
C2H5+O2=C2H5O2    3.398E53 -13.9 9.279E3  
    PLOG/4.0E -2 3.398E53 -1.39E1 9.279E3/  
    PLOG/1.0E0 9.362E59 -1.528E1 1.424E4/  
    PLOG/1.0E1 1.262E60 -1.491E1 1.624E4/  
C2H5+O2=C2H4+HO2    2.094E9 0.49 -3.914E2  
    PLOG/4.0E -2 2.094E9 4.9E -1 -3.914E2/  
    PLOG/1.0E0 1.843E7 1.13E0 -7.206E2/  
    PLOG/1.0E1 7.561E14 -1.01E0 4.749E3/  
C2H 5+O2=CH3CHO+OH    4.908E -6 4.76 2.543E2  
    PLOG/4.0E -2 4.908E -6 4.76E0 2.543E2/  
    PLOG/1.0E0 6.803E -2 3.57E0 2.643E3/  
    PLOG/1.0E1 8.265E2 2.41E0 5.285E3/  
C2H5O2= CH3CHO+OH    1.237E35 -9.42 3.636E4  
    PLOG/4.0E -2 1.237E35 -9.42E0 3.636E4/  
    PLOG/1.0E0 1.687E36 -9.22E0 3.87E4/  
    PLOG/1.0E1 2.52E41 -1.02E1 4.371E4/  
C2H5O2=C2 H4+HO2    1.782E32 -7.1 3.284E4  
    PLOG/4.0E -2 1.782E32 -7.1E0 3.284E4/  
    PLOG/1.0E0 2.701E37 -8.47E0 3.584E4/  
    PLOG/1.0E1 1.98E38 -8.46E0 3.79E4/  
 
H2+C2H5O2=H+C2H5O2H    1.5E14 0.0 2.603E4  
 
C2H5O2+HO2=C2H5O2H+O2    1.75E10 0.0 -3.275E3  
C2H5O2+CH2O=C2H5O2H+HCO    1.99E12 0.0 1.166E4  
C2H5O2+CH4=C2H5O2H+CH3    1.81E11 0.0 1.848E4  
C2H5O2+CH3OH=C2H5O2H+CH2OH    1.81E12 0.0 1.371E4  
 
C2H5O2H=C2H5O+OH    6.31E14 0.0 4.23E4  
 
C2H3+H(+M)=C2H4(+M)    6.08E12 0.27 2.8E2  
    H2/2.0/  
    H2O/6.0/  
    CO/1.5/  
    CO2/2.0/  
    CH4/2.0/  
    C2H6/3.0/  
    LOW/1.4E30 -3.86E0 3.32E3/  
    TROE/7.82E -1 2.075E2 2.663E3 6.095E3/  
 
CONFUSING  
C2H4+O2=C2H3+HO2    4.22E13 0.0 5.76231E4  
C2H 4+H=C2H3+H2    5.07E7 1.93 1.295E4  
C2H4+OH=C2H3+H2O    2.23E4 2.745 2.2155E3  
C2H4+C H3O=C2H3+CH3OH    1.2E11 0.0 6.75E3  
WHAT IS JUSTIFICATION FOR THIS RATE CONSTANT? WHY WAS IT SUGGESTED?  
C2H4+CH3O2=C2H3+CH3O2H    8.59E0 3.754 2.7132E4  
WHAT IS JUSTIFICATION FOR THIS RATE CONSTANT? WHY WAS IT SUGGESTED?  
C2H4+C2H5O2=C2H3+C2H5O2H    8.59E0 3.754 2.7132E4  
C2H4+CH3=C2H3+CH4    9.76E2 2.947 1.5148E4  
    DUP  
C2H4+CH3=C2H3+CH4    8.13E -5 4.417 8.8358E3  
    DUP  
 
C2H4+O=CH3+HCO    7.453E6 1.88 1.83E2  
C2H4+O=CH2CHO+H    6.098E6 1.88 1.83E2  
 
C2H4+OH=CH3+CH2O    5.35E0 2.9 2 -1.7327E3  
    PLOG/1.0E -2 5.35E0 2.92E0 -1.7327E3/  
    PLOG/2.5E -2 3.19E1 2.71E0 -1.1723E3/  
    PLOG/1.0E -1 5.55E2 2.36E0 -1.808E2/  
    PLOG/1.0E0 1.78E5 1.68E0 2.0605E3/  
    PLOG/1.0E1 2.37E9 5.6E -1 6.0067E3/  
    PLOG/1.0E2 2.76E13 -5.0E-1 1.14551E4/  
C2H4+OH=CH3CHO+H    2.37E -7 5.3 -2.0506E3  
    PLOG/1.0E -2 2.37E -7 5.3E0 -2.0506E3/  
    PLOG/2.5E -2 8.73E -5 4.57E0 -6.18E2/  
    PLOG/1.0E -1 4.03E -1 3.54E0 1.8817E3/  
    PLOG/1.0E0 2.38E -2 3.91E0 1.7227E3/  
    PLOG/1.0E1 8.25E8 1.01E0 1.05073E4/  
    PLOG/1.0E2 6.8E9 8.1E -1 1.38673E4/  
C2H2+H(+M)=C2H3(+M)    1.71E10 1.266 2.709E3  
    H2/2.0/  
    H2O/6.0/  
    CO/1.5/  
    CO2/2.0/  
    CH4/2.0/  
    C2H6/3.0/  
    LOW/6.346E31 -4.664E0 3.78E3/  
    TROE/7.88E -1 -1.02E4 1.0E -30/ 
C2H3+O2=C2H3OO    4.07E27 -4.67 5.222E3  
    DUP  
    PLOG/1.0E -2 1.55E24 -5.45E0 9.662E3/  
    PLOG/1.0E -1 3.48E56 -1.501E1 1.916E4/  
    PLOG/3.16E -1 1.25E64 -1.697E1 2.129E4/  
    PLOG/1.0E0 3.34E61 -1.579E1 2.015E4/  
    PLOG/3.16E0 7.34E53 -1.311E1 1.73E4/  
    PLOG/1.0E1 4.16E48 -1.121E1 1.6E4/  
    PLOG/ 3.16E1 2.33E43 -9.38E0 1.481E4/  
    PLOG/1.0E2 3.41E39 -8.04E0 1.436E4/  
C2H3+O2=C2H3OO    4.07E27 -4.67 5.222E3  
    DUP 
    PLOG/1.0E -2 1.78E -9 4.15E0 -4.707E3/  
    PLOG/1.0E -1 2.36E22 -4.52E0 2.839E3/  
    PLOG/3.16E -1 2.0E26 -5.43E0 2.725E3/  
    PLOG/1.0E0 6.13E28 -5.89E0 3.154E3/  
    PLOG/3.16E0 2.14E29 -5.8E0 3.52E3/  
    PLOG/1.0E1 3.48E28 -5.37E0 3.636E3/  
    PLOG/3. 16E1 3.32E27 -4.95E0 3.61E3/  
    PLOG/1.0E2 1.03E27 -4.72E0 3.68E3/  
C2H3+O2=CH2CHO+O    1.76E12 0.15 4.205E3  
    DUP  
    PLOG/1.0E -2 7.88E20 -2.67E0 6.742E3/  
    PLOG/1.0E -1 7.72E20 -2.67E0 6.713E3/  
    PLOG/3.16E -1 9.87E20 -2.7E0 6.724E3/  
    PLOG/1.0E0 7.1E20 -2.65E0 6.489E3/  
    PLOG/3.16E0 4.5E20 -2.53E0 6.406E3/  
    PLOG/1.0E1 1.76E23 -3.22E0 8.697E3/  
    PLOG/3.16E1 3.14E25 -3.77E0 1.153E4/  
    PLOG/1.0E2 1.02E26 -3.8E0 1.391E4/  
C2H3+O2=CH2CHO+O    1.76E12 0.15 4.20 5E3 
    DUP  
    PLOG/1.0E -2 1.36E10 6.2E -1 -2.776E2/  
    PLOG/1.0E -1 1.42E10 6.2E -1 -2.477E2/  
    PLOG/3.16E -1 1.66E10 6.0E -1 -1.625E2/  
    PLOG/1.0E0 2.02E10 5.8E -1 3.84E1/  
    PLOG/3.16E0 9.75E9 6.7E -1 2.48E2/  
    PLOG/1.0E1 7.34E9 7.2E -1 7.781E2/  
    PLOG/3.16E1 1.57E9 9.2E -1 1.219E3/  
    PLOG/1.0E2 7.85E7 1.28E0 1.401E3/  
C2H3+O2=C2H2+HO2    6.49E6 1.5 5.218E3  
    DUP  
    PLOG/1.0E -2 1.08E7 1.28E0 3.322E3/  
    PLOG/1.0E -1 7.75E6 1.33E0 3.216E3/  
    PLOG/3.16E -1 1.21E7 1.27E0 3.311E3/  
    PLOG/1.0E0 2.15E7 1.19E0 3.367E3/  
    PLOG/3.16E0 1.13E8 1.0E0 3.695E3/  
    PLOG/1.0E1 1.31E11 1.2E -1 5.872E3/  
    PLOG/3.16E1 1.19E9  8.2E-1 5.617E3/  
    PLOG/1.0E2 1.06E17 -1.45E0 1.223E4/  
C2H3+O2=C2H2+HO2    6.49E6 1.5 5.218E3  
    DUP  
    PLOG/1.0E -2 4.76E1 2.75E0 -7.964E2/  
    PLOG/1.0E -1 5.16E1 2.73E0 -7.683E2/  
    PLOG/3.16E -1 5.55E1 2.73E0 -6.585E2/  
    PLOG/1.0E0 4.6E1 2.76E0 -4.928E2/  
    PLOG/3.16E0 3.75E0 3.07E0 -6.01E2/  
    PLOG/1.0E1 5.48E0 3.07E0 8.57E1/  
    PLOG/3.16E1 4.47E 8 0.0E0 9.55E2/  
    PLOG/1.0E2 2.02E1 2.94E0 1.847E3/  
C2H3+O2=CH2CO+OH    1.17E3 2.43 7.074E3  
    DUP  
    PLOG/1.0E -2 8.66E2 2.41E0 6.061E3/  
    PLOG/1.0E -1 8.91E2 2.41E0 6.078E3/  
    PLOG/3.16E -1 9.43E2 2.4E0 6.112E3/  
    PLOG/1.0E0 1.06E3 2.39E0 6.18E3/  
    PLOG/3.16E0 1.09E3 2.38E0 6.179E3/  
    PLOG/1.0E1 1.39E3 2.36E0 6.074E3/  
    PLOG/3.16E1 2.49E6 1.42E0 8.48E3/  
    PLOG/1.0E2 1.66E10 3.6E -1 1.201E4/  
C2H3+O2=CH2CO+OH    1.17E3 2.43 7.074E3  
    DUP  
    PLOG/1.0E -2 1.82E -1 3.12E0 1 .331E3/  
    PLOG/1.0E -1 2.07E -1 3.11E0 1.383E3/  
    PLOG/3.16E -1 2.71E -1 3.08E0 1.496E3/  
    PLOG/1.0E0 5.26E -1 3.01E0 1.777E3/  
    PLOG/3.16E0 1.37E0 2.9E0 2.225E3/  
    PLOG/1.0E1 4.19E -1 2.93E0 2.052E3/  
    PLOG/3.16E1 1.19E -4 4.21E0 2.043E3/  
    PLOG/1.0E2 1.3E -3 3.97E0 3.414E3/  
C2H3+O2=CH2O+HCO    1.16E16 -1.13 3.791E3  
    DUP  
    PLOG/1.0E -2 2.49E36 -7.6E0 1.264E4/  
    PLOG/1.0E -1 2.43E36 -7.6E0 1.261E4/  
    PLOG/3.16E -1 1.95E36 -7.57E0 1.249E4/  
    PLOG/1.0E0 2.73E35 -7.32E0 1.182E4/  
    PLOG/3.16E0 1.43E36 -7.47E0 1.246E4/  
    PLOG/1.0E1 5.18E35 -7.2E0 1.343E4/  
    PLOG/3.16E1 3.19E20 -2.57E0 5.578E3/  
    PLOG/1.0E2 2.73E33 -6.28E0 1.6E4/  
C2H3+O2=CH2O+HCO    1.16E16 -1.13 3.791E3  
    DUP  
    PLOG/1.0E -2 4.54E15 -1.28E0  5.153E2/  
    PLOG/1.0E -1 4.59E15 -1.28E0 5.13E2/  
    PLOG/3.16E -1 4.81E15 -1.29E0 5.206E2/  
    PLOG/1.0E0 6.08E15 -1.31E0 6.457E2/  
    PLOG/3.16E0 9.45E15 -1.36E0 1.066E3/  
    PLOG/1.0E1 2.56E15 -1.18E0 1.429E3/  
    PLOG/3.16E1 1.03E69 -1.923E1 1.476E4/  
    PLOG/1.0E2 4.21E10 1.9E -1 8.306E2/  
C2H3+O2=>CH2O+H+CO    1.16E16 -1.13 3.791E3  
    DUP  
    PLOG/1.0E -2 5.82E36 -7.6E0 1.264E4/  
    PLOG/1.0E -1 5.66E36 -7.6E0 1.261E4/  
    PLOG/3.16E -1 4.55E36 -7.57E0 1.249E4/  
    PLOG/1.0E0 6.36E35 -7.32E0 1.182E4/  
    PLOG/3.16E0 3.35E36 -7.47E0 1.246E4/  
    PLOG/1.0E1 1.21E36 -7.2E0 1.343E4/  
    PLOG/3.16E1 7.43E20 -2.57E0 5.578E3/  
    PLOG/1.0E2 6.36E33 -6.28E0 1.6E4/  
C2H3+O2=>CH2O+H+CO    1.16E16 -1.13 3.791E3  
    DUP  
    PLOG/1.0E -2 1.06E16 -1.28E0 5.153E2/  
    PLOG/1.0E -1 1.07E16 -1.28E0 5.13E2/  
    PLOG/3.16E -1 1.13E16 -1.29E0 5.206E2/  
    PLOG/1.0E0 1.42E16 -1.31E0 6.457E2/  
    PLOG/3.16E0 2.2E16 -1.36E0 1.066E3/  
    PLOG/1.0E1 5.98E15 -1.18E0 1.429E3/  
    PLOG/3.16E1 2.39E69 -1.923E1 1.476E4 / 
    PLOG/1.0E2 9.81E10 1.9E -1 8.306E2/  
C2H3+O2=CO+CH3O    3.09E13 -0.89 3.682E3  
    DUP  
    PLOG/1.0E -2 8.19E18 -2.66E0 3.201E3/  
    PLOG/1.0E -1 4.06E14 -1.32E0 8.858E2/  
    PLOG/3.16E -1 4.34E14 -1.33E0 9.006E2/  
    PLOG/1.0E0 1.03E11 -3.3E-1 -7.478E2/  
    PLOG/3.16E0 1.89E12 -3.0E0 -8.995E3/  
    PLOG/1.0E1 1.93E24 -5.63E0 1.8E0/  
    PLOG/3.16E1 1.1E18 -2.22E0 5.178E3/  
    PLOG/1.0E2 5.79E32 -6.45E0 1.681E4/  
C2H3+O2=CO+CH3O    3.09E13 -0.89 3.682E3  
    DUP  
    PLOG/1.0E -2 1.29E9 1.8E -1 -1.717E3/  
    PLOG/1.0E -1 5.99E11 -2.93E0 -9.564E3/  
    PLOG/3.16E -1 2.91E11 -2.93E0 -1.012E4/  
    PLOG/1.0E0 5.77E21 -3.54E0 4.772E3/  
    PLOG/3.16E0 4.99E15 -1.62E0 1.849E3/  
    PLOG/1.0E1 9.33E16 -1.96E0 3.324E3/  
    PLOG/3 .16E1 1.02E72 -2.069E1 1.586E4/  
    PLOG/1.0E2 1.1E9 3.1E -1 1.024E3/  
C2H3+O2=CO2+CH3    6.16E13 -1.05 3.743E3  
    DUP  
    PLOG/1.0E -2 2.37E35 -7.76E0 1.263E4/  
    PLOG/1.0E -1 1.73E35 -7.72E0 1.252E4/  
    PLOG/3.16E -1 4.47E34 -7.55E0 1.214E4/  
    PLOG/1.0E0 7.25E31 -6.7E0 1.044E4/  
    PLOG/3.16E0 3.63E35 -7.75E0 1.283E4/  
    PLOG/1.0E1 2.09E35 -7.53E0 1.405E4/  
    PLOG/3. 16E1 3.84E18 -2.44E0 5.408E3/  
    PLOG/1.0E2 1.21E32 -6.32E0 1.619E4/  
C2H3+O2=CO2+CH3    6.16E13 -1.05 3.743E3  
    DUP 
    PLOG/1.0E -2 6.27E13 -1.16E0 4.063E2/  
    PLOG/1.0E -1 6.24E13 -1.16E0 4.014E2/  
    PLOG/3.16E -1 6.12E13 -1.16E0 3.97E2/  
    PLOG/1.0E0 5.32E13 -1.14E0 4.467E2/  
    PLOG/3.16E0 1.45E14 -1.26E0 9.877E2/  
    PLOG/1.0E1 5.02E13 -1.11E0 1.409E3/  
    PLOG/3.16E1 1.4E70 -2.011E1 1.543E4/  
    PLOG/1.0E2 9.21E8 2.5E -1 8.553E2/  
C2H3OO=CH2CHO+O    1.22E29 -4.71 4.234 E4 
    DUP  
    PLOG/1.0E -2 2.7E180 -4.819E1 1.693E5/  
    PLOG/1.0E -1 3.9E38 -8.69E0 4.277E4/  
    PLOG/3.16E -1 4.57E47 -1.121E1 4.705E4/  
    PLOG/1.0E0 7.62E81 -2.128E1 6.508E4/  
    PLOG/3.16E0 1.86E68 -1.683E1 6.068E4/  
    PLOG/1.0E1 2.02E55 -1.269E1 5.584 E4/ 
    PLOG/3.16E1 1.11E53 -1.179E1 5.669E4/  
    PLOG/1.0E2 4.3E48 -1.031E1 5.609E4/  
C2H3OO=CH2CHO+O    1.22E29 -4.71 4.234E4  
    DUP  
    PLOG/1.0E -2 1.47E30 -6.64E0 4.111E4/  
    PLOG/1.0E -1 9.65E -12 5.96E0 2.289E4/  
    PLOG/3.16E -1 3.95E22 -3.71E0 3.627E4/  
    PLOG/1.0E0 2.39E33 -6.62E0 4.128E4/  
    PLOG/3.16E0 6.37E31 -5.96E0 4.126E4/  
    PLOG/1.0E1 2.13E29 -5.1E0 4.0 71E4/  
    PLOG/3.16E1 4.66E27 -4.5E0 4.053E4/  
    PLOG/1.0E2 5.99E25 -3.85E0 4.012E4/  
C2H3OO=CH2CO+OH    1.55E24 -3.87 4.985E4  
    DUP  
    PLOG/1.0E -2 1.15E47 -1.228E1 7.533E4/  
    PLOG/1.0E -1 8.43E9 -2.06E0 3.372E4/  
    PLOG/3.16E -1 6.06E4 1.7E -1 3.422E4/  
    PLOG/1.0E0 1.51E19 -3.61E0 4.306E4/  
    PLOG/3.16E0 2.13E33 -7.39E0 5.161E4/  
    PLOG/1.0E1 4.44E36 -7.99E0 5.468E4/  
    PLOG/3.16E1 1.19E37 -7.8E0 5.646E4/  
    PLOG/1.0E2 9.08E35 -7.21E0 5.755E4/  
C2H3OO=CH2CO+OH    1.55E24 -3.87 4.985E4  
    DUP  
    PLOG/1.0E -2 2.31E2 -7.3E-1 2.571E4/  
    PLOG/1.0E -1 1.83E -23 7.84E0 2.019E4/  
    PLOG/3.16E -1 3.82E63 -2.044E1 4.342E4/  
    PLOG/1.0E0 3.18E27 -7.76E0 3.723E4/  
    PLOG/3.16E0 2.32E -5 3.47E0 3.156E4/  
    PLOG/1.0E1 1.06E -1 2.64E0 3.416E4/  
    PLOG/3.16E1 5.62E2 1.7E0 3.645E4/  
    PLOG/1.0E2 1.11E7 5.2E -1 3.867E4/  
C2H3OO=CH2O+HCO    1.19E20 -2.29 3.017E4  
    DUP  
    PLOG/1.0E -2 1.66E174 -5.552E1 6.032E4/  
    PLOG/1.0E -1 9.03E66 -1.725E1 4.812E4/  
    PLOG/3.16E -1 1.82E43 -9.87E0 3.796E4/  
    PLOG/1.0E0 8.64E33 -6.88E0 3.437E4/  
    PLOG/3.16E0 7.29E171 -4.353E1 1.919E5/  
    PLOG/1.0E1 1.03E32 -6.06E0 3.55E4/  
    PLOG/3.16E1 1.85E34 -6.57E0 3.851E4/  
    PLOG/1.0E2 5.7E29 -5.19E0 3.68E4/  
C2H3OO=CH2O+HCO    1.19E20 -2.29 3.017E4  
    DUP  
    PLOG/1.0E -2 2.27E35 -7.97E0 3.128E4/  
    PLOG/1.0E -1 2.08E26 -4.96E0 2.878E4/  
    PLOG/3.16E -1 1.45E20 -3.08E0 2.663E4/  
    PLOG/1.0E0 1.06E130 -3.938E1 5.47E4/  
    PLOG/3.16E0 2.35E34 -6.87E0 3.57E4/  
    PLOG/1.0E1 2.18E175 -5.378E1 6.85E4/  
    PLOG/3.16E1 1.07E185 -5.422E1 8.899E4/  
    PLOG/1.0E2 4.68E2 1.81E0 1.81E4/  
C2H3OO=>CH2O+H+CO    1.19E20 -2.29 3.017E4  
    DUP  
    PLOG/1.0E -2 3.88E174 -5.552E1 6.032E4/  
    PLOG/1.0E -1 2.11E67 -1.725E1 4.812E4/  
    PLOG/3.16E -1 4.26E43 -9.87E0 3.796E4/  
    PLOG/1.0E0 2.02E34 -6.88E0 3.437E4/  
    PLOG/3.16E0 1.7E172 -4.353E1 1 .919E5/  
    PLOG/1.0E1 2.4E32 -6.06E0 3.55E4/  
    PLOG/3.16E1 4.32E34 -6.57E0 3.851E4/  
    PLOG/1.0E2 1.33E30 -5.19E0 3.68E4/  
C2H3OO=>CH2O+H+CO    1.19E20 -2.29 3.017E4  
    DUP  
    PLOG/1.0E -2 5.29E35 -7.97E0 3.128E4/  
    PLOG/1.0E -1 4.85E26 -4.96E0 2.878E4/  
    PLOG/3.16E -1 3.37E20 -3.08E0 2.663E4/  
    PLOG/1.0E0 2.46E130 -3.938E1 5.47E4/  
    PLOG/3.16E0 5.49E34 -6.87E0  3.57E4/  
    PLOG/1.0E1 5.09E175 -5.378E1 6.85E4/  
    PLOG/3.16E1 2.49E185 -5.422E1 8.899E4/  
    PLOG/1.0E2 1.09E3 1.81E0 1.81E4/  
C2H3OO=CO+CH3O    1.16E -1 3.16 1.842E4  
    DUP  
    PLOG/1.0E -2 5.2E33 -7.92E0 3.132E4/  
    PLOG/1.0E -1 1.26E98 -2.709 E1 6.406E4/  
    PLOG/3.16E -1 1.8E33 -7.27E0 3.376E4/  
    PLOG/1.0E0 3.83E33 -7.2E0 3.51E4/  
    PLOG/3.16E0 1.28E79 -1.961E1 7.487E4/  
    PLOG/1.0E1 4.07E32 -6.62E0 3.721E4/  
    PLOG/3.16E1 6.86E44 -1.004E1 4.703E4/  
    PLOG/1.0E2 1.0E -10 0.0E0 0.0E0/  
2000K, maximum error is 18.13%  
C2H3OO=CO+CH3O    1.16E -1 3.16 1.842E4  
    DUP  
    PLOG/1.0E -2 2.31E129 -4.186E1 4.585E4/  
    PLOG/1.0E -1 2.42E28 -5.99E0 3.054E4/  
    PLOG/3.16 E-1 8.69E -50 1.663E1 -3.9E3/  
    PLOG/1.0E0 1.19E -39 1.361E1 -1.317E3/  
    PLOG/3.16E0 8.8E86 -2.308E1 6.101E4/  
    PLOG/1.0E1 1.27E3 1.44E0 1.866E4/  
    PLOG/3.16E1 1.97E17 -2.23E0 2.859E4/  
    PLOG/1.0E2 3.25E4 1.694E0 2.33276E4/  
 
C2H3+H=C2H2+H2    1.7E14 0.0 0.0E0  
C2H3+OH=C2H2+H2O    3.011E13 0.0 0.0E0  
C2H3+CH3=CH4+C2H2    3.92E11 0.0 0.0E0  
2C2H3=C2H2+C2H4    9.6E11 0.0 0.0E0  
C2H+H(+M)=C2H2(+M)    1.0E17 0.0 0.0E0  
    H2/2.0/  
    H2O/6.0/  
    CO/1.5/  
    CO2/2.0/  
    CH4/2.0/  
    C2H6/3.0/  
    LOW/3.75E33 -4.8E0 1.9E3/  
    TROE/6.46E -1 1.32E2 1.315E3 5.566E3/  
 
C2H2+O=CH2+CO    7.395E8 1.28 2.472E3  
C2H2+O= HCCO+H    2.958E9 1.28 2.472E3  
C2H2+HO2=CH2CO+OH    6.03E9 0.0 7.949E3  
IS USC?  
C2H2+HCO=C2H3+CO    1.0E7 2.0 6.0E3  
IS USC?  
C2H2+CH2=C3H3+H    1.2E13 0.0 6.62E3  
IS USC?  
C2H2+HCCO=C3H3+CO    1.0E11 0.0 3.0E3  
 
C2H2+OH=C2H+H2O    2.632E6 2.14 1.706E4  
C2H2+OH=CH2CO+H    1.578E3 2.56 -8.445E2  
    PLOG/1.0E -2 1.578E3 2.56E0 -8.445E2/  
    PLOG/2.5E -2 1.518E4 2.28E0 -2.921E2/  
    PLOG/1.0E -1 3.017E5 1.92E0 5.981E2/  
    PLOG/1.0E0 7.528E6 1.55E0 2.106E3/  
    PLOG/1.0E1 5.101E6 1.65E0 3.4E3/  
    PLOG/1.0E2 1.457E4 2.45E0 4.477E3/  
C2H2+OH=CH3+CO    4.757E5 1.68 -3.298E2  
    PLOG/1.0E -2 4.757E5 1.68E0 -3.298E2/  
    PLOG/2.5E -2 4.372E6 1.4E0 2.265E2/  
    PLOG/1.0E -1 7.648E7 1.05E 0 1.115E3/  
    PLOG/1.0E0 1.277E9 7.3E -1 2.579E3/  
    PLOG/1.0E1 4.312E8 9.2E -1 3.736E3/  
    PLOG/1.0E2 8.25E5 1.77E0 4.697E3/  
C2H+O2=HCO+CO    5.0E13 0.0 1.5E3  
C2H+H2=H+C2H2    4.9E5 2.5 5.6E2  
C2H+OH=H+HCCO    2.0E13 0.0 0.0E0  
CH3CHO(+M)=CH3+HCO(+M)    2.45E22 -1.74 8.6355E4  
    LOW/1.03E59 -1.13E1 9.59125E4/  
    TROE/2.49E -3 7.181E2 6.089E0 3.78E3/  
CH3CHO(+M)=CH4+CO(+M)    2.72E21 -1.74 8.6355E4  
    LOW/1.144E58 -1.13E1 9.59125E4/  
    TROE/2.49E -3 7.181E2 6.089E0 3.78E3/  
 
CH3CHO+O2=CH3CO+HO2    3.01E13 0.0 3.915E4  
OF NIST DATA?  
CH3CHO+O=CH3CO+OH    5.94E12 0.0 1.868E3  
CH3CHO+H=CH3CO+H2    1.31E5 2.58 1.22E3  
CH3CHO+OH=CH3CO+H2O    3.37E12 0.0 -6.19E2  
CH3CHO+HO2=CH3CO+H2O2    3.01E12 0.0 1.192E4  
CH3CHO+CH3=CH3CO+CH4    7.08E -4 4.58 1.966E3  
CH3CHO+CH3O2=CH3CO+CH3O2H    3.01E12 0.0 1.192E4  
CH3CHO+H=CH2CHO+H2    2.72E3 3.1 5.21E3  
CH3CHO+OH=CH2CHO+H2O    1.72E5 2.4 8.15E2  
CH3CO(+M)=CH3+CO(+M)    1.07E12 0.63 1.69E4  
    LOW/5.65E18 -9.7E-1 1.46E4/  
    TROE/6.29E -1 8.73E9 5.52E0 7.6E7/  
CH3CO(+M)=CH2CO+H(+M)    9.413E7 1.917 4.49872E4  
    LOW/1.516E51 -1.027E1 5.539E4/  
    TROE/6.009E -1 8.103E9 6.677E2 5.0E9/  
CH3CO+H=CH2CO+H2    2.0E13 0.0 0.0E0  
CH3CO+O=CH2CO+OH    2.0E13 0.0 0.0E0  
CH3CO+CH3=CH2CO+CH4    5.0E13 0.0 0.0E0  
CH2CHO(+M)=CH2CO+H(+M)    1.43E15 -0.15 4.56E4  
    LOW/6.0E29 -3.8E0 4.34239E4/  
    TROE/9.85E -1 3.93E2 9.8E9 5.0E9/  
CH2CHO(+M)=CH3+CO( +M)    2.93E12 0.29 4.03E4  
    LOW/9.52E33 -5.07E0 4.13E4/  
    TROE/7.13E -17 1.15E3 4.99E9 1.79E9/  
CH2CHO+O2=CH2CO+HO2    1.88E5 2.37 2.373E4  
    PLOG/1.0E -2 1.88E5 2.37E0 2.373E4/  
    PLOG/1.0E -1 1.88E5 2.37E0 2.737E4/  
    PLOG/1.0E0 2.51E5 2.33E0 2.38E4/  
    PLOG/1.0E1 7.05E7 1.63E0 2.529E4/  
CH2CH O+O2=>CH2O+CO+OH    2.68E17 -1.84 6.53E3  
    PLOG/1.0E -2 2.68E17 -1.84E0 6.53E3/  
    PLOG/1.0E -1 1.52E20 -2.58E0 8.98E3/  
    PLOG/1.0E0 1.65E19 -2.22E0 1.034E4/  
    PLOG/1.0E1 8.953E13 -6.0E-1 1.012E4/  
CH2+CO(+M)=CH2CO(+M)    8.1E11 0.0 0.0E0  
    H2/2.0/  
    H2O/6.0/  
    CO/1.5/  
    CO2/2.0/  
    CH4/2.0/  
    C2H6/3.0/  
    LOW/2.69E33 -5.11E0 7.095E3/  
    TROE/5.907E -1 2.75E2 1.226E3 5.185E3/  
CH2CO+H=HCCO+H2    1.401E15 -0.171 8.7832E3  
CH2CO+O=HCCO+OH    1.0E13 0.0 8.0E3  
CH2CO+OH=HCCO+H2O    1.0E13 0.0 2.0E3  
 
CH2CO+H= CH3+CO    7.704E13 -0.171 4.1832E3  
CH2CO+O=CH2+CO2    1.75E12 0.0 1.35E3  
CH2CO+OH=CH2OH+CO    2.0E12 0.0 -1.01E3  
CH2CO+CH3=C2H5+CO    4.769E4 2.312 9.468E3  
 
HCCO+OH=>H2+2CO    1.0E14 0.0 0.0E0  
HCCO+O=>H+2CO    8.0E13 0.0 0.0E0  
HCCO+O2=>OH+2CO    1.91E11 -0.02 1.02E3  
HCCO+O2=>CO2+CO+H    4.78E12 -0.142 1.15E3  
CONSTANT?  
CH3+CH2O=C 2H5O    3.0E11 0.0 6.336E3  
CH3CHO+H=C2H5O    4.61E7 1.71 7.09E3  
 
C2H5O+O2=CH 3CHO+HO2    4.28E10 0.0 1.097E3  
CH3O+HCO=CH3OH+CO    9.0E13 0.0 0.0E0  
C3H8(+M)=CH3+C2H5(+M)    1.29E37 -5.84 9.738E4  
    H2/2.0/  
    H2O/6.0/  
    CO/1.5/  
    CO2/2.0/  
    CH4/2.0/  
    C2H6/3.0/  
    LOW/5.64E74 -1.574E1 9.8714E4/  
    TROE/3.1E -1 5.0E1 3.0E3 9.0E3/  
IC3H7+H=C3H8    1.0E14 0.0 0.0E0  
C3H8+O2=IC3H7+HO2    2.0E13 0.0 4.964E4  
C3H8+H=IC3H7+H2    1.3E6 2.4 4.471E3  
C3H8+O=IC3H7+OH    5.49E5 2.5 3.14E3  
C3H8+OH=IC3H7+H2O    4.67E7 1.61 -3.5E1  
C3H8+HO2=IC3H7+H2O2    6.32E1 3.37 1.372E4  
C3H8+CH3=IC3H7+CH4    6.4E4 2.17 7.52E3  
C3H8+C2H3=IC3H7+C2H4    1.0E11 0.0 1.04E4  
C3H8+C2H5=IC3H7+C2H6    1.0E11 0.0 1.04E4  
C3H8+C3H5 -A=IC3H7+C3H6    7.94E11 0.0 1.62E4  
C3H8+CH3O=IC3H7+CH3OH    3.0E11 0.0 7.0E3  
C3H8+CH3O2=IC3H7+CH3O2H    1.019E1 3.58 1.481E4  
C3H8+C2H5O2=IC3H7+C2H5O2H    1.019E1 3.58 1.481E4  
C3H8+O2CHO=IC3H7+HO2CHO    1.475E4 2.6 1.391E4  
 
IC3H7+H=C2H5+CH3    2.0E1 3 0.0 0.0E0  
IC3H7+OH=C3H6+H2O    2.41E13 0.0 0.0E0  
IC3H7+O=CH3CHO+CH3    4.818E13 0.0 0.0E0  
IC3H7+HO2=IC3H7O+OH    7.0E12 0.0 -1.0E3  
IC3H7+CH3O2=IC3H7O+CH3O    7.0E12 0.0 -1.0E3  
CH3+CH3CHO=IC3H7O    1.0E11 0.0 9.256E3  
IC3H7+O2=IC3H7O2    1.0E11 0.0 0.0E0  
    PLOG/1.0E -2 7.33E5 1.33E0 -6.34564E3/  
    PLOG/1.0E -1 2.24E11  -1.05E -1 -3.69787E3/  
    PLOG/1.0E0 1.54E18 -2.02E0 -4.98567E2/  
    PLOG/1.0E1 6.74E27 -4.85E0 3.77982E3/  
    PLOG/1.0E2 1.67E29 -5.15E0 5.03645E3/  
IC3H7O2=C3H6+HO2    1.224E9 1.28 3.0E4  
 
IC3H7O2+CH3O2= >IC3H7O+CH3O+O2    1.4E16 -1.61 1.86E3  
IC3H7O2+C2H5O2=>IC3H7O+C2H5O+O2    1.4E16 -1.61 1.86E3  
2IC3H7O2=>O2+2IC3H7O    1.4E16 -1.61 1.86E3  
IC3H7O2+CH 3=IC3H7O+CH3O    7.0E12 0.0 -1.0E3  
IC3H7O2+C2H5=IC3H7O+C2H5O    7.0E12 0.0 -1.0E3  
IC3H7O2+IC3H7=2IC3H7O    7.0E12 0.0 -1.0E3  
IC3H7O2+C3H5 -A=IC3H7O+C 3H5O    7.0E12 0.0 -1.0E3  
C2H3+CH3(+M)=C3H6(+M)    2.5E13 0.0 0.0E0  
    LOW/4.27E58 -1.194E1 9.7698E3/  