S1 
 Supporting Information  
Study on a novel methodology for developing  skeletal mechanism of RP-3 
aviation kerosene  
Ping Liu 1, 2, 3, Xiangkui  Gong 4, Tao Deng  1, 2, 3, Jin Yu 1, 2, 3, 4 1 
1 School of Aeronautics , Chongqing Jiaotong University, Chongqing 400074, China ; 
2 The Green Aerotechnics Research Institute of Chongqing Jiaotong University , Chongqing 401120 , 
China ; 
3 Chongqing Key Laboratory of Green Aviation Energy and Power, Chongqing, 401120, China  
4 School of Mechatronics & Vehicle Engineering, Chongqing Jiaotong University, Chongqing 400074, 
China  
 
 
  
                                                           
1 Corresponding author. Jin Yu, E-mail: yjin1 23@yeah.net   
S2 
 S1. The skelet al mechanism for surrogate fuel  
ELEMENTS  
C H N O AR HE  
END  
SPECIES  
N2  
AR 
H2 
H 
O2 
O 
H2O  
OHS2 
H2O2  
HO2  
CO 
CO2  
CH4  
CH3  
CH2  
CH3O2H  
CH3O2  
CH3OH  
CH3O  
CH2OH  
CH2O  
HCO  
HO2CHO  
O2CHO  
C2H6  
C2H5  
C2H5O2H  
C2H5O2  
C2H4  
C2H3  
C2H3OO  
C2H2  
C2H  
C2H5O  
CH3CHO  
CH3CO  
CH2CHO  
CH2CO  
HCCO  
C3H8  
S3 
 IC3H7  
IC3H7O2  
IC3H7O  
C3H6  
C3H5 -A 
C3H5 -S 
C3H5 -T 
C3H5O  
AC3H5OOH  
C3H4 -P 
C3H4 -A 
C3H3  
C3H3O  
C2H3CHO  
C2H3CO  
CH3COCH2  
IC4H9  
TC4H9  
IC3H5CO  
IC4H9O2  
TC4H9O2  
IC4H8O2H -I 
IC4H8O2H -T 
IC4H8  
IC4H7  
IC4H7 -I1 
IC4H7O  
C4H8 -1 
C4H6  
C6H101 -5 
C6H9 -A 
C8H18 -25 
C8H17  
C8H17 -OO 
C8-QOOH  
C8-OOQOOH  
C8-KET  
C6H13CO  
NC3H7  
NC3H7O2  
NC3H7O  
C3H6OOH1 -2 
C3H6O1 -2 
CH3CHCHO  
CH3CHCO  
PC4H9  
S4 
 C4H72 -1OOH  
C4H71 -3OOH  
C4H71 -1 
C4H71 -3 
C4H71 -1O2 
C3H6CHO -3 
NC12H26  
C12H25  
C12H25 -OO 
C12-QOOH  
C12-OOQOOH  
C12-KET  
C12H24  
C12H23  
HE 
OHV  
CH2(S)  
CH 
CHV  
HCOH  
HOCH2O  
HOCHO  
OCHO  
CHCHO  
C8H9  
C8H9O  
C8H9OO  
C9H12  
C8H9CH2  
C7H9  
C8H9CH2O  
C8H9CHO  
C8H9CO  
C7H9O  
C6H9  
C8H10  
PC2H4OH  
O2C2H4OH  
C4H5 -N 
C6H6  
C5H4O  
Decalin  
RDecalin  
RDec -OO 
Dec-QOOH  
Dec-OOQOOH  
S5 
 Dec-KET  
CYC6H10  
CYC6H9 -3 
C4H7  
DCYC10H16  
DCLD1 -3R 
C8H12  
X135C6H7 -3R 
LC5H7  
CYC5H5  
CYC5H6  
CYC6H8 -13 
C6H9 -13-6 
N  
NH  
NNH  
NO  
NO2  
N2O  
HNO  
HCN  
END  
REACTIONS MOLES CAL/MOLE  
!  
!\KINETICS_MODULE: \H2_O2  
!\MODCOMMENTS:  
!\MODWARNINGS:  
!\MODSUBMECHS:  
!  
!\SUBMECH: \H2 
!\REACTIONCLASS:  \UNIMOL                                    \A              \N              
\EA 
!\AUTHOR: AK ! \REF: TSANG AND HAMPSON, J. PHYS. CHEM. REF. DATA, 15:1087 
(1986) ! \COMMENT:  
!3RD BODY COLLIDER EFFICIENCIES  
H2+M=2H+M    4.577E19 -1.4 1.044E5  
    H2/2.5/  
    H2O/12.0/  
    CO/1.9/  
    CO2/3.8/  
    CH4/2.0/  
    C2H6/3.0/  
!\REACTIONCLASS:  \ABSTRACTION                               \A              \N              
\EA 
!! 
!\SITE: \UNDEF  
S6 
 !\AUTHOR: AK ! \REF:SUTHERLAND ET AL., 21ST SYMPOSIUM, P. 929 (1986) ! \COMMENT:  
H2+O=H+OH    5.08E4 2.67 6.292E3  
!\AUTHOR: AK ! \REF:LAM ET AL. SUBMITTED IJCK ! \COMMENT  
H2+OH=H+H2O    4.38E13 0.0 6.99E3  
!\SUBMECH: \O2 
!\MECHCOMMENTS:  
!\MECHWARNINGS:  
!\REACTIONCLASS:  \UNIMOL                                    \A              \N              
\EA 
!! 
!\AUTHOR: AK ! \REF: TSANG AND HAMPSON, J. PHYS. CHEM. REF. DATA, 15:1087 
(1986) ! \COMMENT:  
!3RD B ODY COLLIDER EFFICIENCIES  
2O+M=O2+M    6.165E15 -0.5 0.0E0  
    H2/2.5/  
    H2O/12.0/  
    CO/1.9/  
    CO2/3.8/  
    CH4/2.0/  
    C2H6/3.0/  
!! 
!\REACTIONCLASS:  \RADICAL_ADDITION \H                        \A              \N              
\EA 
!! 
!\AUTHOR: AK ! \REF: HONG ET AL. PROC. OF THE COMB.  INST. 33 (2011) 309?16 ! \COMMENT: 2 
PARAMETER FIT  
O2+H=O+OH    1.04E14 0.0 1.5286E4  
!\ENDSUBMECH: \O2 
!\SUBMECH: \H2O 
!\MECHCOMMENTS:  
!\MECHWARNINGS:  
!\REACTIONCLASS:  \UNIMOL                                    \A              \N              
\EA 
!! 
!\AUTHOR: AK ! \REF: LI IJCK 36 : 566?75, 2004 ! \COMMENT:OPTIMISED TO FIT H2 AND CH4 
FLAMES DATA  
!3RD BODY COLLIDER EFFICIENCIES  
H+OH+M=H2O+M    3.5E22 -2.0 0.0E0  
    H2/0.73/  
    H2O/3.65/  
    CH4/2.0/  
    C2H6/3.0/  
!! 
!\REACTIONCLASS:  \ABSTRACTION                               \A              \N              
\EA 
!! 
S7 
 !\AUTHOR: AK  !\REF: SUTHERLAND ET AL., 23RD SYMPOSIUM, P. 51 (1990) ! \COMMENT:  
O+H2O=2OH    6.7E7 1.704 1.49868E4  
!! 
!\REACTIONCLASS:  \RADICAL_ALPHA_SCISSION                    \A              \N              
\EA 
!! 
!\AUTHOR: AK ! \REF: TSANG AND HAMPSON, J. PHYS. CHEM. REF. DATA, 15:1087 
(1986) ! \COMMENT:  
!3RD BODY COLLIDER EFFICIENCIES  
O+H+M=OH+M    4.714E18 -1.0 0.0E0  
    H2/2.5/  
    H2O/12.0/  
    CO/1.5/  
    CO2/2.0/  
    CH4/2.0/  
    C2H6/3.0/  
!\SUBMECH: \H2O2  
!\MECHCOMMENTS:  
!\MECHWARNINGS:  
!\REACTIONCLASS:  \UNIMOL                                    \A              \N              
\EA 
!! 
!H2O2(+H2O)(=)OH+OH(+H2O) 2.000E+012 0.900 48749.0 ! \AUTHOR: AK ! \REF: TROE, COMBUST. 
FLAME, 158:594 -601 (2011)! \COMMENT: RATE CONSTANT IS FOR N2  
!LOW/ 1.865E+025 -2.300 48749.0/  
!TROE/ 5.100E -001 1.000E -030 1.000E+030/  
!\AUTHOR: AK ! \REF: T ROE, COMBUST. FLAME, 158:594 -601 (2011)! \COMMENT: RATE 
CONSTANT IS FOR N2, ! \COMMENT: EFFICIENCIS OF H2O FROM THE SAME REF,  
!LOW -PRESSURE -LIMIT  
!TROE PARAMETERS  
!3RD BODY COLLIDER EFFICIENCIES  
H2O2(+M)=2OH(+M)    2.0E12 0.9 4.8749E4  
    H2O/7.65/  
    CO2/1.6/  
    N2/1.5/  
    O2/1.2/  
    H2O2/7.7/  
    H2/3.7/  
    CO/2.8/  
    LOW/2.49E24 -2.3E0 4.8749E4/  
    TROE/4.3E -1 1.0E -30 1.0E30/  
!! 
H2O2+H=H2O+OH    2.41E13 0.0 3.97E3  
!\AUTHOR: AK ! \REF: ELLINGSON J. PHYS. CHEM. (2007) 111, (51), 13554 -13566 ! \COMMENT:  
H2O2+H=H2+HO2    2.15E10 1.0 6.0E3  
S8 
 !\AUTHOR: AK ! \REF:TSANG AND HAMPSON, J. PHYS. CHEM. REF. DATA, 15 :1087 
(1986) ! \COMMENT:  
H2O2+O=OH+HO2    9.55E6 2.0 3.97E3  
!\AUTHOR: AK ! \REF: HONG ET AL. J. PHYS. CHEM. A 114 (2010) 5718 -5727 ! \COMMENT:  
H2O2+OH=H2O+HO2    1.74E12 0.0 3.18E2  
    DUP  
!\AUTHOR: ! \REF: ! \COMMENT:  
H2O2+OH=H2O+HO2    7.59E13 0.0 7.269E3  
    DUP  
!! 
!\REACTIONCLASS:  \R_R_ABSTRACTION                           \A              \N              
\EA 
!! 
!\AUTHOR: KPS ! \REF: NOT A CLUE WHAT REFERENCE IS HERE AS MECHANISM IS A 
MESS ! \COMMENT: WARNING  
HO2+H=2OH    7.079E13 0.0 2.95E2  
!\AUTHOR: AK ! \REF:MICHAEL SUTHERLAND 2000 ! \COMMENT:  
HO2+H=H2+O2    1.1402E10 1.0827 5.5378E2  
!\AUTHOR: AK ! \REF:BAULCH ET AL., J. PHYS. CHEM. REF DATA, 21:411 (1992)  
HO2+O=OH+O2    3.25E13 0.0 0.0E0  
!\AUTHOR: ?? ! \REF: hong pci 2013 1015C ! \COMMENT: WARNING  
OH+HO2=H2O+O2     7.0E12 0.0 -1.09296E3  
    DUP  
!\AUTHOR: ! \REF: ! \COMMENT:  
OH+HO2=H2O+O2    4.5E14 0.0 1.09296E4  
    DUP  
!\AUTHOR: AK ! \REF: hong pci 2013, kapel 2002 ! \COMMENT: WARNING  
2HO2=H2O2+O2    1.0E14 0.0 1.1040883E4  
    DUP  
!\AUTHOR: ! \REF: ! \COMMENT:  
2HO2=H2O 2+O2    1.9E11 0.0 -1.4089248E3  
    DUP  
!! 
!\REACTIONCLASS:  \RADICAL_ALPHA_SCISSION                    \A              \N              
\EA 
!! 
!\AUTHOR: AK ! \REF:FERNANDES PCCP 2008 !COMMENT: Efficiencis of AR and HE derived from 
seperated reactions,  
!LOW -PRESSURE -LIMIT  
!TROE PARAMETERS  
!3RD BODY CO LLIDER EFFICIENCIES  
H+O2(+M)=HO2(+M)    4.65E12 0.44 0.0E0  
    H2/1.3/  
    CO/1.9/  
    CO2/3.8/  
    H2O/10.0/  
S9 
     CH4/2.0/  
    C2H6/3.0/  
    LOW/1.737E19 -1.23E0 0.0E0/  
    TROE/6.7E -1 1.0E -30 1.0E30 1.0E30/  
!H+O2(+AR)(=)HO2(+AR) 4.650E+012 0.440 0.0 ! \AUTHOR: AK ! \REF: BATES ET AL. PCCP 3 (2001) 
2337 -2342 ! \COMMENT: WARNING: HAS BEEN REMOVED FROM LATEST VERSION OF KZ 
MECHANISM  
!LOW/ 6.810E+018 -1.200 0.0/  
!TROE/ 7.000E -001 1.000E -030 1.000E+030 1.000E+030/  
! 
!H+O2(+HE)(=)HO2(+HE) 4.650E+012 0.440 0.0 ! \AUTHOR: AK ! \REF: ?? NOT WELL DEFINED IN 
MECHANISM?! ! \COMMENT: WARNING: LPL OF ABOVE RATE CONSTANT OR THIS ONE HAS 
BEEN MULTIPLIED BY 1.5  
!LOW/ 9.192E+018 -1.200 0.0/  
!TROE/ 5.900E -001 1.000E -030 1.000E+030 1.0 00E+030/ !  
!\END_KINETICS_MODULE: \H2_O2  
!  
!  
CO+O(+M)=CO2(+M)    1.362E10 0.0 2.384E3  
    H2/2.0/  
    H2O/12.0/  
    CO/1.75/  
    CO2/3.6/  
    LOW/1.173E24 -2.79E0 4.191E3/  
!! 
CO+OH=CO2+H    7.015E4 2.053 -3.557E2  
    DUP  
!\AUTHOR: ! \REF: ! \COMMENT:  
CO+OH=CO2+H    5.757E12 -0.664 3.318E2  
    DUP  
!! 
!\REACTIONCLASS:  \RADICAL_ADDITION \HO2                      \A              \N              
\EA 
!! 
!\AUTHOR: ?? ! \REF: YOU ET AL. J. PHYS. CHEM. A 2007, 111, 4031 -4042 ! \COMMENT:  
CO+HO2=CO2+OH    1.57E5 2.18 1.794E4  
!! 
!\REACTIONCLASS:  \R+O2                                      \A              \N              
\EA 
!! 
!\AUTHOR: ?? ! \REF: 86TSA/ HAM * 0.44 ! \COMMENT:  
CO+O2=CO2+O    1.119E12 0.0 4.77E4  
!\SUBMECH: \CH4  
!\MECHCOMMENTS:  
!\MECHWARNINGS:  
S10 
 !----------------------------------------------------------------- ----------------------------------------------------------------
- 
!! 
!\REACTIONCLASS:  \UNIMOL                                    \A              \N              
\EA 
!! 
!LOW -PRESSURE -LIMIT  
!TROE PARAMETERS  
!3RD BODY COLLIDER EFFICIENCIES  
CH3+H(+M)=CH4(+M)    1.27E16 -0.63 3.83E2  
    H2/2.0/  
    H2O/6.0/  
    CO/1.5/  
    CO2/2.0/  
    CH4/2.0/  
    C2H6/3.0/  
    LOW/2.477E33 -4.76E0 2.44E3/  
    TROE/7.83E -1 7.4E1 2.941E3 6.964E3/  
!! 
!\REACTIONCLASS:  \RH_R_ABSTRACTION                          \A              \N              
\EA 
!! 
!\AUTHOR: ! \REF: BAULCH, D.L.; ET AL.,J. PHYS. CHEM. REF. DATA (2005) ! \COMMENT:  
CH4+H=CH3+H2    6.14E5 2.5 9.587E3  
!\AUTHOR: ! \REF: !REF:GRI 3.0 ! \COMMENT: WARNING: WHAT IS REFERENCE FOR GRI 
MECHA NISM?  
CH4+O=CH3+OH    1.02E9 1.5 8.6E3  
!\AUTHOR: ! \REF: CURRAN ESTIMATE, FIT TO NIST DATABASE ! \COMMENT: WARNING: WHAT 
ARE REFERENCES TO RATE CONSTANTS IN NIST?  
CH4+OH=CH3+H2O    5.83E4 2.6 2.19E3  
!\AUTHOR: ! \REF: J. AGUILERA -IPARRAGUIRRE ET AL. J PHYS CHE M A (2008) 112(30): 7047 -
7054. ! \COMMENT: 1.695E+001 in AramcoMech1.3 (with Ax1.5)  
CH4+HO2=CH3+H2O2    1.13E1 3.74 2.101E4  
!\AUTHOR: ! \REF: NEW FIT FROM HJC ! \COMMENT: WARNING: WHAT IS SOURCE OF THIS 
RATE CONSTANT??  
CH4+CH3O2=CH3+CH3O2H    9.6E -1 3.77 1.78 1E4 
!\AUTHOR: ! \REF: JASPER/ KLIPPENSTEIN PROC COMBUST INST 32 (2009) 279?86 ! \COMMENT:  
CH3+HO2=CH4+O2    1.16E5 2.23 -3.022E3  
!! 
!\REACTIONCLASS:  \RADICAL_ADDITION \CH2                      \A              \N              
\EA 
!! 
!\AUTHOR: ! \REF: GRI 3.0 ! \COMMENT: WARNING  
CH4+CH2=2CH3    2.46E6 2.0  8.27E3  
CH2+H(+M)=CH3(+M)    2.5E16 -0.8 0.0E0  
    H2/2.0/  
S11 
     H2O/6.0/  
    CO/1.5/  
    CO2/2.0/  
    CH4/2.0/  
    C2H6/3.0/  
    LOW/3.2E27 -3.14E0 1.23E3/  
    TROE/6.8E -1 7.8E1 1.995E3 5.59E3/  
!! 
!\REACTIONCLASS:  \RADICAL_RECOMBINATIONS                    \A              \N              
\EA 
!! 
!\AUTHOR: ! \REF: GRI 3.0 ! \COMMENT:  
CH2+O2=HCO+OH    1.06E13 0.0 1.5E3  
!\AUTHOR: ! \REF: GRI 3.0 ! \COMMENT:  
CH2+O2=>CO2+2H    2.64E12 0.0 1.5E3  
!\AUTHOR: ! \REF:  GRI 3.0 ! \COMMENT:  
CH2+O=>CO+2H    5.0E13 0.0 0.0E0  
!LOW -PRESSURE -LIMIT  
!TROE PARAMETERS  
CH3+O2(+M)=CH3O2(+M)    7.812E9 0.9 0.0E0  
    LOW/6.85E24 -3.0E0 0.0E0/  
    TROE/6.0E -1 1.0E3 7.0E1 1.7E3/  
!\AUTHOR: ?? ! \REF:N. K. SRINIVASAN ET AL.,J. PHYS. CHEM. A 109, 7902 -7914 
(2005) ! \COMMENT:  
CH3+O2=CH3O+O    7.546E12 0.0 2.832E4  
!\AUTHOR: ?? ! \REF: PERSONAL COMMUNICATION, STEVE KLIPPENSTE IN ! \COMMENT: 
WARNING: HAS THIS BEEN PUBLISHED?  
CH3+O2=CH2O+OH    2.641E0 3.283 8.105E3  
!! 
!\REACTIONCLASS:  \RADICAL_ADDITION \O                        \A              \N              
\EA 
!! 
!\AUTHOR: ! \REF:HARDING AND KLIPPENSTEIN 2B04, 30TH SYMP 2004. ! \COMMENT:  
CH3+O=CH2O+H    5.54E13 0.05 -1.36E 2 
!\AUTHOR: ?? ! \REF:FROM JASPER/ KLIPP,J.PHYS.CHEM A 111,19,3932 -3950 ! \COMMENT:  
CH3+OH=CH2O+H2    3.502E5 1.441 -3.244E3  
    PLOG/1.0E -2 3.502E5 1.441E0 -3.244E3/  
    PLOG/1.0E -1 8.854E5 1.327E0 -2.975E3/  
    PLOG/1.0E0 1.65E7 9.73E -1 -2.01E3/  
    PLOG/1 .0E1 5.374E9 2.87E -1 2.8E2/  
    PLOG/1.0E2 9.494E18 -2.199E0 9.769E3/  
!\AUTHOR: ?? ! \REF:FROM JASPER/ KLIPP,J.PHYS.CHEM A 111,19,3932 -3950 ! \COMMENT: 
INCREASED BY FACTOR OF 2  
CH3+OH=CH2OH+H    1.621E10 0.965 3.21E3  
    PLOG/1.0E -2 1.621E10 9.65E -1 3.214E3/  
    PLOG/1.0E -1 1.807E10 9.5E -1 3.247E3/  
S12 
     PLOG/1.0E0 4.686E10 8.33E -1 3.566E3/  
    PLOG/1.0E1 1.525E13 1.34E -1 5.641E3/  
    PLOG/1.0E2 3.59E14 -1.86E -1 8.601E3/  
!\AUTHOR: ?? ! \REF:FROM JASPER/ KLIPP,J.PHYS.CHEM A 111,19,3932 -3950 ! \COMMENT:  
CH3+OH=H+CH3O    1.186E9 1.016 1.194E4  
    PLOG/1.0E -2 1.186E9 1.016E0 1.194E4/  
    PLOG/1.0E -1 1.188E9 1.016E0 1.194E4/  
    PLOG/1.0E0 1.23E9 1.011E0 1.195E4/  
    PLOG/1.0E1 1.798E9 9.65E -1 1.206E4/  
    PLOG/1.0E2 5.242E10 5.51E -1 1.307E4/  
!\AUTHOR: ?? ! \REF:FROM JASPER/ KLIPP,J.PHYS.CHEM A 111,19,3932 -3950 ! \COMMENT:  
CH3+OH=CH2+H2O    4.293E4 2.568 3.9978E3  
!! 
!\REACTIONCLASS:  \R+HO2                                     \A              \N              
\EA 
!! 
!\AUTHOR: ?? ! \REF: JASPER/ KLIPPENSTEIN PROC COMBUST INST 32 (2009) 279?86 ! \COMMENT:  
CH3+ HO2=CH3O+OH    1.0E12 0.269 -6.875E2  
CH3O2+O=CH3O+O2    3.6E13 0.0 0.0E0  
!\AUTHOR: ! \REF:LIGHTFOOT ET AL. J. CHEM. SOC. FARA TRANS. 19 91, 87(19), 3213 --
3220. ! \COMMENT:  
CH3O2+H=CH3O+OH    9.6E13 0.0 0.0E0  
!\AUTHOR: ! \REF:LIGHTFOOT ET AL. J. CHEM. SOC. FARA TRANS. 1991, 87(19), 3213 --
3220. ! \COMMENT:  
CH3O2+OH=CH3OH+O2    6.0E13 0.0 0.0E0  
!\AUTHOR: ! \REF:LIGHTFOOT,P.D. ETAL., ATMOS. ENVIRON. PART A: 26, 1805 -1961 
(1992) ! \COMMENT:  
CH3O2+HO2=CH3O2H+O2    2.47E11 0.0 -1.57E3  
!\AUTHOR: ! \REF:!REF:Tsang, W., J. Phys. Chem. Ref. Data 15, 1087 (1986) ! \COMMENT: ADDED 
29/07/2015  
CH3O2+H2O2=CH3O2H+ HO2    2.41E12 0.0 9.936E3  
!\AUTHOR: ! \REF:KEIFFER, M. ET AL.,J. CHEM. SOC. FARADAY TRANS. 2: 84, 505 
(1988) ! \COMMENT:  
CH3O2+CH3=2CH3O    5.08E12 0.0 -1.411E3  
!\AUTHOR: ! \REF:LIGHTFOOT ET AL. J. CHEM. SOC. FARA TRANS. 1991, 87(19), 3213 --
3220. ! \COMMENT:  
2CH3O2=>CH2O+CH3OH+O2    3.11E14 -1.61 -1.051E3  
!\AUTHOR: ! \REF:LIGHTFOOT ET AL. J. CHEM. SOC. FARA TRANS. 1991, 87(19), 3213 --
3220. ! \COMMENT:  
2CH3O2=>O2+2CH3O    1.4E16 -1.61 1.86E3  
H2+CH3O2=H+CH3O2H    1.5E14 0.0 2.603E4  
!! 
!\REACTIONCLASS:  \KHP_DECOM P                                \A              \N              
\EA 
!! 
S13 
 !\AUTHOR: ! \REF:LIGHTFOOT ET AL. J. CHEM. SOC. FARA TRANS. 1991, 87(19), 3213 --
3220. ! \COMMENT:  
CH3O2H=CH3O+OH    6.31E14 0.0 4.23E4  
!\SUBMECH: \CH3OH  
!\MECHCOMMENTS: HCOH IS FORMED FROM CH 3+OH, IT IS NOT NECESSARY FOR 
FORMALDEHYDE OXIDATION, AND MINOR FOR CH4/CH3OH  
!\MECHWARNINGS:  
!LOW -PRESSURE -LIMIT  
!TROE PARAMETERS  
CH3OH(+M)=CH3+OH(+M)    2.084E18  -0.615 9.25406E4  
    LOW/1.5E43 -6.995E0 9.79922E4/  
    TROE/ -4.748E -1 3.558E4 1.116E3 9.023E3/  
!\AUTHOR: ! \REF:FROM JASPER/ KLIPP,J.PHYS.CHEM A 111,19,3932 -3950 ! \COMMENT: 
NEGLECTING HCOH CHANNELS AS THEY ARE NOT IMPORTANT  
!LOW -PRESSURE -LIMIT  
!TROE PARAM ETERS  
CH3OH(+M)=CH2OH+H(+M)    7.896E -3 5.038 8.44674E4  
    LOW/3.39E42 -7.244E0 1.052303E5/  
    TROE/ -7.391E1 3.705E4 4.15E4 5.22E3/  
!! 
!\REACTIONCLA SS:  \RH_R_ABSTRACTIONS                         \A              \N              
\EA 
!! 
!\AUTHOR: ! \REF:J. CHEM. PHYS. 134, 094302 (2011) ! \COMMENT: WA RNING INCOMPLETE 
REFERENCE  
CH3OH+H=CH3O+H2    1.99E5 2.56 1.03E4  
!\AUTHOR: ! \REF:J. CHEM. PHYS. 134, 094302 (2011) ! \COMMENT: WARNING INCOMPLETE 
REFERENCE  
CH3OH+H=CH2OH+H2    3.07E5 2.55 5.44E3  
!\AUTHOR: ! \REF:TSANG, JPC REF. DATA, 16:471 (1987)! \COMMENT: reduced by an order of 
magnitude from abstraction from the methyl site  
CH3OH+O=CH3O+OH    3.88E4 2.5 3.08E3  
!\AUTHOR: ! \REF:TSANG, JPC REF. DATA, 16:471 (1987) ! \COMMENT:  
CH3OH+O=CH2OH+OH    3.88E5 2.5 3.08E3  
!\AUTHOR: ! \REF:XU ET AL. PROC 31 2007 159 -166 !\COMMENT:  
CH3OH+OH=CH3O+H2O    1.5E2 3.03 -7.63E2  
!\AUTHOR: ! \REF:XU ET AL. PROC 31 2007 159 -166 ! \COMMENT:  
CH3OH+OH=CH2OH+H2O    3.08E4 2.65 -8.067E2  
!CH3OH+O2(=)CH2OH+HO2 2.050E+013 0.000 44900.0 ! \AUTHOR: ! \REF:WALKER, R. W., 
REACTION KINETICS, VOL. 1, S. P. R. CHEMICAL SOCIETY, 1975 ! \COMMENT: Ultan removed 
21/08/15  
!\AUTHOR: ! \REF:S. J. Klippenstein, L. B. Harding, M. J. Davis, A. S. Tomlin, R. T. S kodje, PCI, 33 (2011) 
351-357 
CH3OH+O2=CH3O+HO2    3.58E4 2.27 4.27645E4  
!\COMMENT:(above)reduced by an order of magnitude from abstraction from the methyl site due to 
increased bond strengths, Ultan added 21/08/15  
S14 
 !\AUTHOR: !REF:S. J. Klippenstein, L. B. Harding, M. J. Davis, A. S. Tomlin, R. T. Skodje, PCI, 33 (2011) 
351-357 ! \COMMENT: Ultan added 21/08/15  
CH3OH+O2=CH2OH+HO2    3.58E5 2.27 4.27645E4  
!CH3OH+HO2(=)CH2OH+H2O2 1.080E+004 2.550 10530.0 ! \AUTHOR: ! \REF: CURRAN 
ESTIMATE ! \COMMENT: WARNING: Ultan  removed 21/08/15  
!\AUTHOR: ! \REF: M. Altarawneh, A. H. Al -Muhtaseb, B. Z. Dlugogorski, E. M. Kennedy, J. C. Mackie, J. 
Comp. Chem. 32 (2011) 1725 -1733 ! \COMMENT:  
CH3OH+HO2=CH3O+H2O2    1.22E12 0.0 2.00707E4  
!\AUTHOR: ! \REF: M. Altarawneh, A. H. Al -Muhtase b, B. Z. Dlugogorski, E. M. Kennedy, J. C. Mackie, J. 
Comp. Chem. 32 (2011) 1725 -1733 ! \COMMENT:  
CH3OH+HO2=CH2OH+H2O2    3.26E13 0.0 1.87822E4  
!CH3OH+CH3(=)CH3O+CH4 1.440E+001 3.100 6935.0 ! \AUTHOR: ! \REF:TSANG, JPC REF. DATA, 
16:471 (1987)! \COMMENT: Ultan  removed 21/08/15  
!CH3OH+CH3(=)CH2OH+CH4 3.190E+001 3.170 7172.0 ! \AUTHOR: ! \REF:TSANG, JPC REF. DATA, 
16:471 (1987) ! \COMMENT: Ultan removed 21/08/15  
!\AUTHOR: ! \REF:I. M. Alecu, D. G. Truhlar, J. Phys. Chem. A, 115 (2011) 14599 -14611 ! \COMMENT: 
Ultan add ed 21/08/15  
CH3OH+CH3=CH2OH+CH4    2.13E -1 3.953 7.0551E3  
!\AUTHOR: ! \REF:I. M. Alecu, D. G. Truhlar, J. Phys. Chem. A, 115 (2011) 14599 -14611 ! \COMMENT: 
Ultan added 21/08/15  
CH3OH+CH3=CH3O+CH4    3.22E3 2.425 8.5795E3  
!\AUTHOR: ! \REF:TSANG, JPC REF. DATA,  16:471 (1987) ! \COMMENT:  
CH3OH+HCO=CH2OH+CH2O    9.63E3 2.9 1.311E4  
!\AUTHOR: ! \REF:TSANG, JPC REF. DATA, 16:471 (1987) ! \COMMENT:  
CH3OH+CH3O=CH2OH+CH3OH    3.0E11 0.0 4.074E3  
!\AUTHOR: ! \REF:TSANG, JPC REF. DATA, 16:471 (1987)  
CH3OH+CH3O2=CH2OH+CH3O2H    1.81E12 0.0 1.371E4  
CH2OH+O2=CH2O+HO2    1.51E15 -1.0 0.0E0  
    DUP  
!\AUTHOR: ! \REF:  !\COMMENT:  
CH2OH+O2=CH2O+HO2    2.41E14 0.0 5.017E3  
    DUP  
!\AUTHOR: ! \REF:TSANG, JPC REF. DATA, 16:471 (1987) ! \COMMENT:  
CH2OH+H=CH2O+H2    6.0E12 0.0 0.0E0  
!\AUTHOR: ! \REF:NORTON, T.S ET AL., IJCK. (1991). ! \COMMENT:  
CH2OH+HO2=CH2O+H2O2    1.2E13 0.0 0 .0E0 
!\AUTHOR: ! \REF:T. J. HELD ET AL. IJCK. 30: 805 --830 (1998) ! \COMMENT: Ultan removed 21/08/15  
CH2OH+HCO=2CH2O    1.8E14 0.0 0.0E0  
!\AUTHOR: ! \REF: ! \COMMENT: WARNING, NO REF  
CH2OH+HCO=CH3OH+CO    1.0E13 0.0 0.0E0  
!\AUTHOR: ! \REF:NORTON, T.S ET AL., IJ CK. (1991). ! \COMMENT:  
CH2OH+CH3O=CH2O+CH3OH    2.4E13 0.0 0.0E0  
!\AUTHOR: ! \REF:TSANG, JPC REF. DATA, 16:471 (1987) ! \COMMENT:  
CH2OH+OH=H2O+CH2O    2.4E13 0.0 0.0E0  
!\AUTHOR: ! \REF:TSANG, JPC REF. DATA, 16:471 (1987) ! \COMMENT:  
CH2OH+O=OH+CH2O    4.2E13 0 .0 0.0E0  
S15 
 !\AUTHOR: ! \REF:TSANG, JPC REF. DATA, 16:471 (1987)  
2CH2OH=CH2O+CH3OH    3.0E12 0.0 0.0E0  
CH3O+O2=CH 2O+HO2    4.38E -19 9.5 -5.501E3  
!\AUTHOR: ! \REF:HOYERMANN ET AL., 18TH SYMPOSIUM ! \COMMENT:  
CH3O+H=CH2O+H2    2.0E13 0.0 0.0E0  
!\AUTHOR: ! \REF:TSANG AND HAMPSON, J. PHYS. CHEM. REF. DATA, 15:1087 
(1986) ! \COMMENT:  
CH3O+HO2=CH2O+H2O2    3.01E11 0.0 0.0E0  
!\AUTHOR: ! \REF: WARNING: NO REFERENCE ! \COMMENT: WARNING: NO REFERENCE  
CH3O+CH3=CH2O+CH4    1.2E13 0.0 0.0E0  
!\AUTHOR: ! \REF:TSANG AND HAMPSON, J. PHYS. CHEM. REF. DATA, 15:1087 
(1986) ! \COMMENT:  
2CH3O=CH3OH+CH2O    6.03E13 0.0 0.0E0  
!! 
!\AUTHOR: ! \REF:LASKIN ET AL. IJCK 32 589 -614 2000 ! \COMMENT:  
!LOW -PRESSURE -LIMIT  
!TROE PARAMETERS  
!3RD BODY COLLIDER EFFICIENCIES  
HCO+H(+M)=CH2O(+M)    1.09E12 0.48 -2.6E2  
    H2/2.0/  
    H2O/6.0/  
    CO/1.5/  
    CO2/2.0/  
    CH4/2.0/  
    C2H6/3.0/  
    LOW/1.35E24 -2.57E0 1.425E3/  
    TROE/7.824E -1 2.71E2 2.755E3 6. 57E3/  
!\AUTHOR: ! \REF:LASKIN ET AL. IJCK 32 589 -614 2000 ! \COMMENT: WARNING: KPS NOT 
INDIVIDUALLY REFERENCED IN MECHANISM, ASSUMING IT'S FROM LASKIN ET AL  
!LOW -PRESSURE -LIMIT  
!TROE PARAMETERS  
!3RD BODY COLLIDER EFFICIENCIES  
CO+H2(+M)=CH2O(+M)    4.3E7 1.5 7.96E4  
    H2/2.0/  
    H2O/6.0/  
    CO/1.5/  
    CO2/2.0/  
    CH4/2.0/  
    C2H6/3.0/  
    LOW/5.07E27 -3.42E0 8.4348E4/  
    TROE/9.32E -1 1.97E2 1.54E3 1.03E4/  
!! 
!\REACTIONCLASS:  \RH_R_ABSTRACTION                          \A              \N              
\EA 
!! 
!\AUTHOR: ! \REF: N. K. SRINIVASAN ET AL.,J. PHYS. CHEM. A 109, 7902 -7914 (2005) ! \COMMENT:  
S16 
 CH2O+O2=HCO+HO2    8.07E15 0.0 5.342E4  
!\AUTHOR: ! \REF: CURRAN FIT TO NIST DATABASE ! \COMMENT:  
CH2O+O=HCO+OH    6.26E9 1.15 2.26E3  
!\AUTHOR: ! \REF: IRDAM ET AL., IJC K 1993, 25, 285 ! \COMMENT:  
CH2O+H=HCO+H2    5.74E7 1.9 2.74E3  
!\AUTHOR: ! \REF: V. VASUDEVAN ET AL. IJCK. 37: 98 --109 (2005). ! \COMMENT:  
CH2O+OH=HCO+H2O    7.82E7 1.63 -1.055E3  
!\AUTHOR: ! \REF: J. PHYS. CHEM. A 109, 12027 -12035, 2005 ! \COMMENT:  
CH2O+HO2=HCO +H2O2    1.88E4 2.7 1.152E4  
!\AUTHOR: ! \REF: BAULCH ET AL. JOURNAL OF PHYSICAL AND CHEMICAL REFERENCE DATA, 
34, 3, 757 -1397 2005 ! \COMMENT:  
CH2O+CH3=HCO+CH4    3.83E1 3.36 4.312E3  
!\AUTHOR: ! \REF: ANALOGY WITH CH3O2+CH2O TSANG/ HAMPSON 1986 ! \COMMENT:  
CH2O +O2CHO=HCO+HO2CHO    1.99E12 0.0 1.166E4  
!\AUTHOR: ! \REF:FITTSCHEN, C., J. CHIM. PHYS. 95: 2129 (1998). ! \COMMENT:  
CH2O+CH3O=HCO+CH3OH    6.62E11 0.0 2.294E3  
!\AUTHOR: ! \REF:TSANG AND HAMPSON, J. PHYS. CHEM. REF. DATA, 15:1087 
(1986) ! \COMMENT:  
CH2O+CH3O2= HCO+CH3O2H    1.99E12 0.0 1.166E4  
!! 
!\REACTIONCLASS:  \RADICAL_ALPHA_SCISSION                    \A              \N              
\EA 
!! 
!\AUTHOR: ! \REF: LI ET AL. IJCK 2007 ! \COMMENT: X1.2  
!3RD BODY COLLIDER EFFICIENCIES  
HCO+M=H+CO+M    5.7E11 0.66 1.487E4  
    H2/2.0/  
    H2O/6.0/  
    CO/1.5/  
    CO2/2.0/  
    CH4/2.0/  
    C2H6/3.0/  
!! 
!\REACTIONCLASS:  \R_R_ABSTRACTION                           \A              \N              
\EA 
!! 
!\AUTHOR: ! \REF:TIMONEN ET AL., JPC, 92:651 (1988) ! \COMMENT:  
HCO+O2=CO+HO2    7.58E12 0.0 4.1E2  
!\AUTHOR: ! \REF:TSANG AND HAMPSON, J. PHYS. CHEM. REF. DATA, 15:1087 
(1986) ! \COMMENT:  
HCO+O=CO+OH    3.02E13 0.0 0.0E0  
!\AUTHOR: ! \REF:TIMONEN ET AL., JPC, 92:651 (1988) ! \COMMENT:  
HCO+H=CO+H2    7.34E13 0.0 0.0E0  
!\AUTHOR: ! \REF:TSANG AND HAMPSON, J. PHYS. CHEM. REF. DATA, 15:1087 
(1986) ! \COMMENT:  
HCO+ OH=CO+H2O    3.011E13 0.0 0.0E0  
S17 
 !\AUTHOR: ! \REF:MULENKO, S.A. REV. ROUM. PHYS. 32, 173 (1987) ! \COMMENT:  
HCO+CH3=CH4+CO    2.65E13 0.0 0.0E0  
!\AUTHOR: ! \REF:TSANG AND HAMPSON, J. PHYS. CHEM. REF. DATA, 15:1087 
(1986) ! \COMMENT:  
2HCO=CH2O+CO    1.8E13 0.0 0 .0E0 
!! 
!\REACTIONCLASS:  \LUMPED_BIMOLECULAR                        \A              \N              
\EA 
!! 
!\AUTHOR: ! \REF:TSANG AND HAMPSON, J. PHYS. CHEM. REF. DATA, 15:1087 
(1986) ! \COMMENT:  
HCO+O=CO2+H    3.0E13 0.0 0.0E0  
!\AUTHOR: ! \REF:TSANG AND HAMPSON, J. PHYS. CHEM. REF. DATA, 15:1087 
(1986) !\COMMENT:  
HCO+HO2=>CO2+H+OH    3.0E13 0.0 0.0E0  
!\AUTHOR: ! \REF:TSANG AND HAMPSON, J. PHYS. CHEM. REF. DATA, 15:1087 
(1986) ! \COMMENT:  
2HCO=>H2+2CO    3.0E12 0.0 0.0E0  
!! 
!\REACTIONCLASS:  \RADICAL_ADDITION \H                        \A              \N              
\EA 
!! 
!\AUTHOR: ! \REF:LASKIN ET AL. IJCK 32 589 -614 2000  
!LOW -PRESSURE -LIMIT  
!TROE PARAMETERS  
!3RD BODY COLLIDER EFFICIENCIES  
CH2O+H(+M)=CH2OH(+M)    5.4E11 0.454 3.6E3  
    H2/2.0/  
    H2O/6.0/  
    CO/1.5/  
    CO2/2.0/  
    CH4/2.0/  
    C2H6/3.0/  
    LOW/1.27E32 -4.82E0 6.53E3/  
    TROE/7.187E -1 1.03E2 1.291E3 4.16E3/  
!\AUTHOR: ! \REF:HIPPLER ET AL. PCCP. 3: 3450 --2458 (2001).  
!LOW -PRESSURE -LIMIT  
!TROE PARAMETERS  
!3RD BODY COLLIDER EFFICIENCIES  
CH3O(+M)=CH2O+H(+M)    6.8E13 0.0 2.617E4  
    H2/2.0/  
    H2O/6.0/  
    CO/1.5/  
    CO2/2.0/  
    CH4/2.0/  
    C2H6/3.0/  
S18 
     LOW/1.867E25 -3.0E0 2.4307E4/  
    TROE/9.0E -1 2.5E3 1.3E3 1.0E99/  
!! 
!\REACTIONCLASS:  \R+O2                                      \A              \N              
\EA 
!! 
!\AUTHOR: ! \REF:CURRAN ESTIMATE ! \COMMENT: WARNING: WHAT IS SOURCE OF RATE 
CONSTANT?  
HCO+O2=O2CHO    1.2E11 0.0 -1.1E3  
2CH3(+M)=C2H6(+M)    2.277E15 -0.69 1.749E2  
    H2O/5.0/  
    CO/2.0/  
    CO2/3.0/  
    LOW/8.054E31 -3.75E0 9.816E2/  
    TROE/0.0E0 5.7E2 1.0E30 1.0E30/  
!\AUTHOR: ! \REF:WANG ET AL., JPC A 107:11414 (2003) ! \COMMENT:  
!LOW -PRESSURE -LIMIT  
!TROE PARAMETERS  
!3RD BODY COLLIDER EFFICIENCIES  
C2H5+H(+M)=C2H6(+M)    5.21E17 -0.99 1.58E3  
    H2/2.0/  
    H2O/6.0/  
    CO/1.5/  
    CO2/2.0/  
    CH4/2.0/  
    C2H6/3.0/  
    LOW/1.99E41 -7.08E0 6.685E3/  
    TROE/8.42E -1 1.25E2 2.219E3 6.882E3/  
!! 
!\REACTIONCLASS:  \RH_R_ABSTRACTION                          \A              \N              
\EA 
!! 
!\AUTHOR: ! \REF:BAULCH ET AL., J. PHYS. CHEM. REF DATA, 21:411 (1992) ! \COMMENT:  
C2H6+O2=C2H5+HO2    6.03E13 0.0 5.187E4  
!\AUT HOR: ! \REF: MIYOSHI,A. ET AL., CHEM. PHYS. LETT. 204, 241 -247 (1993) ! \COMMENT:  
C2H6+O=C2H5+OH    3.55E6 2.4 5.83E3  
!\AUTHOR: ! \REF:WANG ET AL., JPC A 107:11414 (2003) ! \COMMENT:  
C2H6+H=C2H5+H2    1.15E8 1.9 7.53E3  
!\AUTHOR: ! \REF:CURRAN, FIT TO NIST DATAB ASE ! \COMMENT: WARNING: WHAT IS 
ORIGINAL SOURCE OF NIST DATA?  
C2H6+OH=C2H5+H2O    1.48E7 1.9 9.5E2  
!\AUTHOR: ! \REF:J. AGUILERA -IPARRAGUIRRE ET AL. J PHYS CHEM A (2008) 112(30): 7047 -
7054. ! \COMMENT:  
C2H6+HO2=C2H5+H2O2    3.46E1 3.61 1.692E4  
!\AUTHOR: ! \REF:TSANG AND HAMPSON, J. PHYS. CHEM. REF. DATA, 15:1087 
(1986) ! \COMMENT:  
S19 
 C2H6+CH3=C2H5+CH4    5.55E -4 4.72 3.231E3  
!\AUTHOR: ! \REF:TSANG AND HAMPSON, J. PHYS. CHEM. REF. DATA, 15:1087 
(1986) ! \COMMENT:  
C2H6+CH3O=C2H5+CH3OH    2.41E11 0.0 7.09 E3 
!\AUTHOR: ! \REF:CARSTENSEN AND DEAN PROC COMBUST INST 30 (2005) 995?003 ! \COMMENT:  
C2H6+CH3O2=C2H5+CH3O2H    1.94E1 3.64 1.71E4  
!\AUTHOR: ! \REF:CARSTENSEN AND DEAN PROC COMBUST INST 30 (2005) 995?003 ! \COMMENT:  
C2H6+C2H5O2=C2H5+C2H5O2H    8.6E0 3.76 1.7 2E4 
!! 
!\REACTIONCLASS:  \RADICAL_BETA_SCISSION                     \A              \N              
\EA 
!! 
!\AUTHOR: ! \REF:MILLER KLIPPENSTEIN PCCP 2004, 6, 1192 -1202 ! \COMMENT: :HP AND LP 
LIMIT*0.7  
!LOW -PRESSURE -LIMIT  
!TROE PARAMETERS  
!3RD BODY COLLIDER EFFICIENCIES  
C2H4+H(+M)=C2H5(+M)    9.569E8 1 .463 1.355E3  
    H2/2.0/  
    H2O/6.0/  
    CH4/2.0/  
    CO/1.5/  
    CO2/2.0/  
    C2H6/3.0/  
    LOW/1.419E39 -6.642E0 5.769E3/  
    TROE/ -5.69E -1 2.99E2 -9.147E3 1.524E2/  
!! 
!\REACTIONCLASS:  \R_R_ABSTRACTION                           \A              \N              
\EA 
!! 
!\AUTHOR: ! \REF: CURRAN: FIT TO PRATT/ WOOD 84 AND PRATT/ VELDMAN 76 ! \COMMENT: 
WHAT IS SOURCE OF ORIGINAL DATA? EXPERIMENT? THEORY?  
C2H5+H=C2H4+H2    2.0E12 0.0 0.0E0  
!\AUTHOR: ! \REF:TSANG AND HAMPSON, J. PHYS. CHEM. REF. DATA, 15:1087 
(1986) ! \COMMENT:  
2C2H4=C2H5+C2H3    4.82E14 0.0 7.153E4  
!\AUTHOR: ! \REF:ZHU, R.S. ET AL.,J. CHEM. PHYS. 120:6566:6573 (2004) ! \COMMENT:  
C2H5+CH3=CH4+C2H4    1.18E4 2.45 -2.921E3  
!! 
!\REACTIONCLASS:  \RADICAL_ADDITION                          \A              \N              
\EA 
!! 
!\AUTHOR: ! \REF:GRI 3.0 ! \COMMENT:  
C2H5+O=CH3CHO+H    1.1E14 0.0 0.0E0  
!\AUTHOR: ! \REF:CURRAN. BASED ON CH3+HO2(=)PRODUCTS ! \COMMENT:  
C2H5+HO2=C2H5O+OH    1.1E13 0.0 0.0E0  
S20 
 !\AUTHOR: ! \REF:CURRAN. BASED ON CH3+HO2(=)PRODUCTS ! \COMMENT:  
C2H5+CH3O2=C2H5O+CH3O    8.0E12 0.0 -1.0E3  
!! 
!\REACTIONCLASS:  \RADICAL_ADDITION                          \A              \N              
\EA 
!! 
!\AUTHOR: ! \REF:STEWART ET AL C_F 1989 ! \COMMENT:  
2CH3=H+C2H5    4.74E12 0.105 1.06643E4  
    PLOG/1.0E -2 4.74E12 1.05E -1 1.06643E4/  
    PLOG/1.0E -1 2.57E13 -9.6E-2 1.14061E4/  
    PLOG/1.0E0 3.1E14 -3.62E -1 1.3372 5E4/  
    PLOG/1.0E1 2.15E10 8.85E -1 1.35325E4/  
    PLOG/1.0E2 1.032E2 3.23E0 1.12361E4/  
!! 
!\REACTIONCLASS:  \R+O2                                      \A              \N              
\EA 
!! 
!\AUTHOR: ! \REF:John D. DeSain, J. Phys. Chem. A, 2003, 107 (22), pp 4415?427 ! \COMMENT:  
C2H5+O2=C2H5O2    3.398E53 -13.9 9.279E3  
    PLOG/4.0E -2 3.398E53 -1.39E1 9.279E3/  
    PLOG/1.0E0 9.362E59 -1.528E1 1.424E4/  
    PLOG/1.0E1 1.262E60 -1.491E1 1.624E4/  
!\AUTHOR: ! \REF:John D. DeSain, J. Phys. Chem. A, 2003, 107 (22), pp 4415?427 ! \COMMENT:  
C2H5+O2=C2H4+HO2    2.094E9 0.49 -3.914E2  
    PLOG/4.0E -2 2.094E9 4.9E -1 -3.914E2/  
    PLOG/1.0E0 1.843E7 1.13E0 -7.206E2/  
    PLOG/1.0E1 7.561E14 -1.01E0 4.749E3/  
!\AUTHOR: ! \REF:John D. DeSain, J. Phys. Chem. A, 2003, 107 (22), pp 4415?427 ! \COMMENT:  
C2H 5+O2=CH3CHO+OH    4.908E -6 4.76 2.543E2  
    PLOG/4.0E -2 4.908E -6 4.76E0 2.543E2/  
    PLOG/1.0E0 6.803E -2 3.57E0 2.643E3/  
    PLOG/1.0E1 8.265E2 2.41E0 5.285E3/  
!\AUTHOR: ! \REF:John D. DeSain, J. Phys. Chem. A, 2003, 107 (22), pp 4415?427 ! \COMMENT:  
C2H5O2= CH3CHO+OH    1.237E35 -9.42 3.636E4  
    PLOG/4.0E -2 1.237E35 -9.42E0 3.636E4/  
    PLOG/1.0E0 1.687E36 -9.22E0 3.87E4/  
    PLOG/1.0E1 2.52E41 -1.02E1 4.371E4/  
!\AUTHOR: ! \REF:John D. DeSain, J. Phys. Chem. A, 2003, 107 (22), pp 4415?427 ! \COMMENT:  
C2H5O2=C2 H4+HO2    1.782E32 -7.1 3.284E4  
    PLOG/4.0E -2 1.782E32 -7.1E0 3.284E4/  
    PLOG/1.0E0 2.701E37 -8.47E0 3.584E4/  
    PLOG/1.0E1 1.98E38 -8.46E0 3.79E4/  
!! 
!\REACTIONCLASS:  \RH_R_ABSTRACTION                          \A              \N              
\EA 
!! 
S21 
 !\AUTHOR: ! \REF:TSANG _ HAMPSON, METHANE, J.  PHYS. CHEM. REF. DATA, VOL 15, 
1986 ! \COMMENT:  
H2+C2H5O2=H+C2H5O2H    1.5E14 0.0 2.603E4  
!\REACTIONCLASS:  \RH_R_ABSTRACTION                          \A              \N              
\EA 
!! 
!\AUTHOR: ! \REF:TSANG, JPC REF. DATA, 16:471 (1987) ! \COMMENT:  