ELEMENTS
O  H  C  N  AR
END                                                   
SPECIES
H2      H       O       O2      OH      H2O     HO2     H2O2    CO      CO2     
HCO     CH2O    N2      AR      
END
THERMO ALL
   300.000  1000.000  5000.000
H2                      H   2    0    0    0G    200.00   3500.00 1000.00    0 1
 3.33727920E+00-4.94024731E-05 4.99456778E-07-1.79566394E-10 2.00255376E-14    2
-9.50158922E+02-3.20502331E+00 2.34433112E+00 7.98052075E-03-1.94781510E-05    3
 2.01572094E-08-7.37611761E-12-9.17935173E+02 6.83010238E-01                   4
H                       H   1    0    0    0G    200.00   3500.00 1000.00    0 1
 2.50000001E+00-2.30842973E-11 1.61561948E-14-4.73515235E-18 4.98197357E-22    2
 2.54736599E+04-4.46682914E-01 2.50000000E+00 7.05332819E-13-1.99591964E-15    3
 2.30081632E-18-9.27732332E-22 2.54736599E+04-4.46682853E-01                   4
O                       O   1    0    0    0G    200.00   3500.00 1000.00    0 1
 2.56942078E+00-8.59741137E-05 4.19484589E-08-1.00177799E-11 1.22833691E-15    2
 2.92175791E+04 4.78433864E+00 3.16826710E+00-3.27931884E-03 6.64306396E-06    3
-6.12806624E-09 2.11265971E-12 2.91222592E+04 2.05193346E+00                   4
O2                      O   2    0    0    0G    200.00   3500.00 1000.00    0 1
 3.28253784E+00 1.48308754E-03-7.57966669E-07 2.09470555E-10-2.16717794E-14    2
-1.08845772E+03 5.45323129E+00 3.78245636E+00-2.99673416E-03 9.84730201E-06    3
-9.68129509E-09 3.24372837E-12-1.06394356E+03 3.65767573E+00                   4
OH                      O   1H   1    0    0G    200.00   3500.00 1000.00    0 1
 3.09288767E+00 5.48429716E-04 1.26505228E-07-8.79461556E-11 1.17412376E-14    2
 3.85865700E+03 4.47669610E+00 3.99201543E+00-2.40131752E-03 4.61793841E-06    3
-3.88113333E-09 1.36411470E-12 3.61508056E+03-1.03925458E-01                   4
H2O                     O   1H   2    0    0G    200.00   3500.00 1000.00    0 1
 3.03399249E+00 2.17691804E-03-1.64072518E-07-9.70419870E-11 1.68200992E-14    2
-3.00042971E+04 4.96677010E+00 4.19864056E+00-2.03643410E-03 6.52040211E-06    3
-5.48797062E-09 1.77197817E-12-3.02937267E+04-8.49032208E-01                   4
HO2                     O   2H   1    0    0G    200.00   3500.00 1000.00    0 1
 4.01721090E+00 2.23982013E-03-6.33658150E-07 1.14246370E-10-1.07908535E-14    2
 1.11856713E+02 3.78510215E+00 4.30179801E+00-4.74912051E-03 2.11582891E-05    3
-2.42763894E-08 9.29225124E-12 2.94808040E+02 3.71666245E+00                   4
H2O2                    O   2H   2    0    0G    200.00   3500.00 1000.00    0 1
 4.16500285E+00 4.90831694E-03-1.90139225E-06 3.71185986E-10-2.87908305E-14    2
-1.78617877E+04 2.91615662E+00 4.27611269E+00-5.42822417E-04 1.67335701E-05    3
-2.15770813E-08 8.62454363E-12-1.77025821E+04 3.43505074E+00                   4
C                       C   1    0    0    0G    200.00   3500.00 1000.00    0 1
 2.49266888E+00 4.79889284E-05-7.24335020E-08 3.74291029E-11-4.87277893E-15    2
 8.54512953E+04 4.80150373E+00 2.55423955E+00-3.21537724E-04 7.33792245E-07    3
-7.32234889E-10 2.66521446E-13 8.54438832E+04 4.53130848E+00                   4
CO                      O   1C   1    0    0G    200.00   3500.00 1000.00    0 1
 2.71518561E+00 2.06252743E-03-9.98825771E-07 2.30053008E-10-2.03647716E-14    2
-1.41518724E+04 7.81868772E+00 3.57953347E+00-6.10353680E-04 1.01681433E-06    3
 9.07005884E-10-9.04424499E-13-1.43440860E+04 3.50840928E+00                   4
CO2                     O   2C   1    0    0G    200.00   3500.00 1000.00    0 1
 3.85746029E+00 4.41437026E-03-2.21481404E-06 5.23490188E-10-4.72084164E-14    2
-4.87591660E+04 2.27163806E+00 2.35677352E+00 8.98459677E-03-7.12356269E-06    3
 2.45919022E-09-1.43699548E-13-4.83719697E+04 9.90105222E+00                   4
HCO                     O   1H   1C   1    0G    200.00   3500.00 1000.00    0 1
 2.77217438E+00 4.95695526E-03-2.48445613E-06 5.89161778E-10-5.33508711E-14    2
 4.01191815E+03 9.79834492E+00 4.22118584E+00-3.24392532E-03 1.37799446E-05    3
-1.33144093E-08 4.33768865E-12 3.83956496E+03 3.39437243E+00                   4
CH2O                    O   1H   2C   1    0G    200.00   3500.00 1000.00    0 1
 1.76069008E+00 9.20000082E-03-4.42258813E-06 1.00641212E-09-8.83855640E-14    2
-1.39958323E+04 1.36563230E+01 4.79372315E+00-9.90833369E-03 3.73220008E-05    3
-3.79285261E-08 1.31772652E-11-1.43089567E+04 6.02812900E-01                   4
N2                      N   2    0    0    0G    300.00   5000.00 1000.00    0 1
 2.92664000E+00 1.48797680E-03-5.68476000E-07 1.00970380E-10-6.75335100E-15    2
-9.22797700E+02 5.98052800E+00 3.29867700E+00 1.40824040E-03-3.96322200E-06    3
 5.64151500E-09-2.44485400E-12-1.02089990E+03 3.95037200E+00                   4
AR                      AR  1    0    0    0G    300.00   5000.00 1000.00    0 1
 2.50000000E+00 0.00000000E+00 0.00000000E+00 0.00000000E+00 0.00000000E+00    2
-7.45375000E+02 4.36600000E+00 2.50000000E+00 0.00000000E+00 0.00000000E+00    3
 0.00000000E+00 0.00000000E+00-7.45375000E+02 4.36600000E+00                   4
END
REACTIONS   MOLES  KELVINS                                     
2O+M<=>O2+M                    1.200E+17     -1.0000       0.00
H2/2.4/ H2O/15.4/ CO/1.75/ CO2/3.6/ AR/0.83/                   
O+H+M<=>OH+M                   5.000E+17     -1.0000       0.00
H2/2/ H2O/6/ CO/1.5/ CO2/2/ AR/0.7/                            
O+H2<=>H+OH                    3.870E+04      2.7000    3150.48
O+HO2<=>OH+O2                  2.000E+13      0.0000       0.00
O+H2O2<=>OH+HO2                9.630E+06      2.0000    2013.09
O+CO(+M)<=>CO2(+M)             1.800E+10      0.0000    1200.30
LOW                  /         6.020E+14        0.00    1509.81      /
H2/2/ O2/6/ H2O/6/ CO/1.5/ CO2/3.5/ AR/0.5/                    
O+HCO<=>OH+CO                  3.000E+13      0.0000       0.00
O+HCO<=>H+CO2                  3.000E+13      0.0000       0.00
O+CH2O<=>OH+HCO                3.900E+13      0.0000    1781.58
O2+CO<=>O+CO2                  2.500E+12      0.0000   24056.37
O2+CH2O<=>HO2+HCO              1.000E+14      0.0000   20130.85
H+O2+M<=>HO2+M                 2.800E+18     -0.8600       0.00
O2/0/ H2O/0/ CO/0.75/ CO2/1.5/ N2/0/ AR/0/                     
H+2O2<=>HO2+O2                 2.080E+19     -1.2400       0.00
H+O2+H2O<=>HO2+H2O             1.126E+19     -0.7600       0.00
H+O2+N2<=>HO2+N2               2.600E+19     -1.2400       0.00
H+O2+AR<=>HO2+AR               7.000E+17     -0.8000       0.00
H+O2<=>O+OH                    2.650E+16     -0.6707    8576.25
2H+M<=>H2+M                    1.000E+18     -1.0000       0.00
H2/0/ H2O/0/ CO2/0/ AR/0.63/                                   
2H+H2<=>2H2                    9.000E+16     -0.6000       0.00
2H+H2O<=>H2+H2O                6.000E+19     -1.2500       0.00
2H+CO2<=>H2+CO2                5.500E+20     -2.0000       0.00
H+OH+M<=>H2O+M                 2.200E+22     -2.0000       0.00
H2/0.73/ H2O/3.65/ AR/0.38/                                    
H+HO2<=>O+H2O                  3.970E+12      0.0000     337.70
H+HO2<=>O2+H2                  4.480E+13      0.0000     537.49
H+HO2<=>2OH                    8.400E+13      0.0000     319.58
H+H2O2<=>HO2+H2                1.210E+07      2.0000    2617.01
H+H2O2<=>OH+H2O                1.000E+13      0.0000    1811.78
H+HCO(+M)<=>CH2O(+M)           1.090E+12      0.4800    -130.85
LOW                  /         2.470E+24       -2.57     213.89      /
TROE                 /        7.8240E-01  2.7100E+02 2.7550E+03 6.5700E+03 /
H2/2/ H2O/6/ CO/1.5/ CO2/2/ AR/0.7/                            
H+HCO<=>H2+CO                  7.340E+13      0.0000       0.00
H+CH2O<=>HCO+H2                5.740E+07      1.9000    1379.97
H2+CO(+M)<=>CH2O(+M)           4.300E+07      1.5000   40060.39
LOW                  /         5.070E+27       -3.42   42450.93      /
TROE                 /        9.3200E-01  1.9700E+02 1.5400E+03 1.0300E+04 /
H2/2/ H2O/6/ CO/1.5/ CO2/2/ AR/0.7/                            
OH+H2<=>H+H2O                  2.160E+08      1.5100    1726.22
2OH(+M)<=>H2O2(+M)             7.400E+13     -0.3700       0.00
LOW                  /         2.300E+18       -0.90    -855.56      /
TROE                 /        7.3460E-01  9.4000E+01 1.7560E+03 5.1820E+03 /
H2/2/ H2O/6/ CO/1.5/ CO2/2/ AR/0.7/                            
2OH<=>O+H2O                    3.570E+04      2.4000   -1061.90
OH+HO2<=>O2+H2O                1.450E+13      0.0000    -251.64
DUPLICATE                                        
OH+HO2<=>O2+H2O                5.000E+15      0.0000    8721.69
DUPLICATE
OH+H2O2<=>HO2+H2O              2.000E+12      0.0000     214.90
DUPLICATE                                        
OH+H2O2<=>HO2+H2O              1.700E+18      0.0000   14801.21
DUPLICATE                                        
OH+CO<=>H+CO2                  4.760E+07      1.2280      35.23
OH+HCO<=>H2O+CO                5.000E+13      0.0000       0.00
OH+CH2O<=>HCO+H2O              3.430E+09      1.1800    -224.96
2HO2<=>O2+H2O2                 1.300E+11      0.0000    -820.33
DUPLICATE                                        
2HO2<=>O2+H2O2                 4.200E+14      0.0000    6039.26
DUPLICATE                                        
HO2+CO<=>OH+CO2                1.500E+14      0.0000   11877.20
HO2+CH2O<=>HCO+H2O2            5.600E+06      2.0000    6039.26
HCO+H2O<=>H+CO+H2O             1.500E+18     -1.0000    8555.61
HCO+M<=>H+CO+M                 1.870E+17     -1.0000    8555.61
H2/2/ H2O/0/ CO/1.5/ CO2/2/                              
HCO+O2<=>HO2+CO                1.345E+13      0.0000     201.31
END
