ELEMENTS
O  H  C  N  AR HE
END
SPECIES
H2  H
AR  N2  HE
O  OH  HCO HO2
H2O  CO  O2  H2O2  CO2
END
THERMO ALL
   298.000  1000.000  5000.000
O                 L 1/90O   1   00   00   00G   200.000  3500.000  1000.000    1
 2.56942078E+00-8.59741137E-05 4.19484589E-08-1.00177799E-11 1.22833691E-15    2
 2.92175791E+04 4.78433864E+00 3.16826710E+00-3.27931884E-03 6.64306396E-06    3
-6.12806624E-09 2.11265971E-12 2.91222592E+04 2.05193346E+00 6.72540300E+03    4
O2                TPIS89O   2   00   00   00G   200.000  3500.000  1000.000    1
 3.28253784E+00 1.48308754E-03-7.57966669E-07 2.09470555E-10-2.16717794E-14    2
-1.08845772E+03 5.45323129E+00 3.78245636E+00-2.99673416E-03 9.84730201E-06    3
-9.68129509E-09 3.24372837E-12-1.06394356E+03 3.65767573E+00 8.68010400E+03    4
H                 L 7/88H   1   00   00   00G   200.000  3500.000   1000.00    1
 2.50000001E+00-2.30842973E-11 1.61561948E-14-4.73515235E-18 4.98197357E-22    2
 2.54736599E+04-4.46682914E-01 2.50000000E+00 7.05332819E-13-1.99591964E-15    3
 2.30081632E-18-9.27732332E-22 2.54736599E+04-4.46682853E-01 6.19742800E+03    4
H2                TPIS78H   2   00   00   00G   200.000  3500.000   1000.00    1
 3.33727920E+00-4.94024731E-05 4.99456778E-07-1.79566394E-10 2.00255376E-14    2
-9.50158922E+02-3.20502331E+00 2.34433112E+00 7.98052075E-03-1.94781510E-05    3
 2.01572094E-08-7.37611761E-12-9.17935173E+02 6.83010238E-01 8.46810200E+03    4
OH                S 9/01O   1H   1    0    0G   200.000  6000.000   1000.00    1
 2.86472886E+00 1.05650448E-03-2.59082758E-07 3.05218674E-11-1.33195876E-15    2
 3.71885774E+03 5.70164073E+00 4.12530561E+00-3.22544939E-03 6.52764691E-06    3
-5.79853643E-09 2.06237379E-12 3.38153812E+03-6.90432960E-01 4.51532273E+03    4
H2O               L 8/89H   2O   1   00   00G   200.000  3500.000  1000.000    1
 3.03399249E+00 2.17691804E-03-1.64072518E-07-9.70419870E-11 1.68200992E-14    2
-3.00042971E+04 4.96677010E+00 4.19864056E+00-2.03643410E-03 6.52040211E-06    3
-5.48797062E-09 1.77197817E-12-3.02937267E+04-8.49032208E-01 9.90409200E+03    4
HO2               L 5/89H   1O   2   00   00G   200.000  3500.000  1000.000    1
 4.01721090E+00 2.23982013E-03-6.33658150E-07 1.14246370E-10-1.07908535E-14    2
 1.11856713E+02 3.78510215E+00 4.30179801E+00-4.74912051E-03 2.11582891E-05    3
-2.42763894E-08 9.29225124E-12 2.94808040E+02 3.71666245E+00 1.00021620E+04    4
H2O2              L 7/88H   2O   2   00   00G   200.000  3500.000  1000.000    1
 4.16500285E+00 4.90831694E-03-1.90139225E-06 3.71185986E-10-2.87908305E-14    2
-1.78617877E+04 2.91615662E+00 4.27611269E+00-5.42822417E-04 1.67335701E-05    3
-2.15770813E-08 8.62454363E-12-1.77025821E+04 3.43505074E+00 1.11588350E+04    4
CO                TPIS79C   1O   1   00   00G   200.000  3500.000  1000.000    1
 2.71518561E+00 2.06252743E-03-9.98825771E-07 2.30053008E-10-2.03647716E-14    2
-1.41518724E+04 7.81868772E+00 3.57953347E+00-6.10353680E-04 1.01681433E-06    3
 9.07005884E-10-9.04424499E-13-1.43440860E+04 3.50840928E+00 8.67100000E+03    4
CO2               L 7/88C   1O   2   00   00G   200.000  3500.000  1000.000    1
 3.85746029E+00 4.41437026E-03-2.21481404E-06 5.23490188E-10-4.72084164E-14    2
-4.87591660E+04 2.27163806E+00 2.35677352E+00 8.98459677E-03-7.12356269E-06    3
 2.45919022E-09-1.43699548E-13-4.83719697E+04 9.90105222E+00 9.36546900E+03    4
HCO               L12/89H   1C   1O   1   00G   200.000  3500.000  1000.000    1
 2.77217438E+00 4.95695526E-03-2.48445613E-06 5.89161778E-10-5.33508711E-14    2
 4.01191815E+03 9.79834492E+00 4.22118584E+00-3.24392532E-03 1.37799446E-05    3
-1.33144093E-08 4.33768865E-12 3.83956496E+03 3.39437243E+00 9.98945000E+03    4
N2                121286N   2               G  0300.00   5000.00  1000.00      1
 0.02926640E+02 0.14879768E-02-0.05684760E-05 0.10097038E-09-0.06753351E-13    2
-0.09227977E+04 0.05980528E+02 0.03298677E+02 0.14082404E-02-0.03963222E-04    3
 0.05641515E-07-0.02444854E-10-0.10208999E+04 0.03950372E+02                   4
AR                120186AR  1               G  0300.00   5000.00  1000.00      1
 0.02500000E+02 0.00000000E+00 0.00000000E+00 0.00000000E+00 0.00000000E+00    2
-0.07453750E+04 0.04366000E+02 0.02500000E+02 0.00000000E+00 0.00000000E+00    3
 0.00000000E+00 0.00000000E+00-0.07453750E+04 0.04366000E+02                   4
HE                L10/90HE  1    0    0    0G   200.000  6000.000 1000.        1
 2.50000000E+00 0.00000000E+00 0.00000000E+00 0.00000000E+00 0.00000000E+00    2
-7.45375000E+02 9.28723974E-01 2.50000000E+00 0.00000000E+00 0.00000000E+00    3
 0.00000000E+00 0.00000000E+00-7.45375000E+02 9.28723974E-01 0.00000000E+00    4
END
REACTIONS
H+O2<=>O+OH                    2.644E+16     -0.6707   17041.00
O+H2<=>H+OH                    4.589E+04       2.700    6260.00
OH+H2<=>H+H2O                  1.734E+08       1.510    3430.00
2OH<=>O+H2O                    3.973E+04       2.400   -2110.00
2H+M<=>H2+M                    1.780E+18      -1.000       0.00
H2/0.0/ H2O/0.0/ CO2/0.0/ AR/0.63/ HE/0.63/
2H+H2<=>2H2                    9.000E+16      -0.600       0.00 
2H+H2O<=>H2+H2O                5.624E+19      -1.250       0.00 
2H+CO2<=>H2+CO2                5.500E+20      -2.000       0.00 
H+OH+M<=>H2O+M                 4.400E+22      -2.000       0.00 
H2/2.0/ H2O/6.30/ CO/1.75/ CO2/3.6/  AR/0.38/ HE/0.38/
O+H+M<=>OH+M                   9.428E+18      -1.000       0.00 
H2/2.0/ H2O/12.0/ CO/1.75/ CO2/3.6/  AR/0.7/ HE/0.7/
2O+M<=>O2+M                    1.200E+17      -1.000       0.00 
H2/2.4/ H2O/15.4/  CO/1.75/ CO2/3.6/  AR/0.83/ HE/0.83/
H+O2(+M)<=>HO2(+M)             5.116E+12       0.440       0.00 
LOW                  /         6.328E+19      -1.400       0.00 /
TROE                 /               0.5       1E-30      1E+30 /
O2/0.85/  H2O/11.89/ CO/1.09/ CO2/2.18/ AR/0.40/ HE/0.46/ H2/0.75/
H2+O2<=>HO2+H                  5.916E+05       2.433   53502.00 
2OH(+M)<=>H2O2(+M)             1.110E+14      -0.370       0.00 
LOW                  /         2.010E+17      -0.584   -2293.00 /     
TROE                 /            0.7346       94.00    1756.00    5182.00 / 
H2/2.0/ H2O/6.00/ CO/1.75/ CO2/3.6/ AR/0.7/ HE/0.7/
HO2+H<=>O+H2O                  3.970E+12       0.000     671.00 
HO2+H<=>2OH                    7.485E+13       0.000     295.00 
HO2+O<=>OH+O2                  4.000E+13       0.000       0.00 
HO2+OH<=>O2+H2O                2.375E+13       0.000    -500.00 
DUPLICATE                                            
HO2+OH<=>O2+H2O                1.000E+16       0.000   17330.00 
DUPLICATE                                            
2HO2<=>O2+H2O2                 1.300E+11       0.000   -1630.00 
DUPLICATE                                            
2HO2<=>O2+H2O2                 3.658E+14       0.000   12000.00 
DUPLICATE                                            
H2O2+H<=>HO2+H2                6.050E+06       2.000    5200.00 
H2O2+H<=>OH+H2O                2.410E+13       0.000    3970.00 
H2O2+O<=>OH+HO2                9.630E+06       2.000    3970.00 
H2O2+OH<=>HO2+H2O              2.000E+12       0.000     427.00 
DUPLICATE                                            
H2O2+OH<=>HO2+H2O              2.670E+41      -7.000   37600.00 
DUPLICATE                                                     
CO+O(+M)<=>CO2(+M)             1.362E+10       0.000    2384.00 
LOW                  /         1.173E+24       -2.79      4191. /
H2/2.0/ H2O/12/ CO/1.75/ CO2/3.6/ AR/0.7/ HE/0.7/
CO+OH<=>CO2+H                  8.000E+11       0.140    7352.00 
DUPLICATE                                             
CO+OH<=>CO2+H                  8.784E+10       0.030     -16.00 
DUPLICATE
CO+O2<=>CO2+O                  1.119E+12       0.000   47700.00 
CO+HO2<=>CO2+OH                3.010E+13       0.000   23000.00 
HCO+H<=>CO+H2                  1.200E+14       0.000       0.00 
HCO+O<=>CO+OH                  3.000E+13       0.000       0.00 
HCO+O<=>CO2+H                  3.000E+13       0.000       0.00 
HCO+OH<=>CO+H2O                3.020E+13       0.000       0.00 
HCO+M<=>CO+H+M                 1.870E+17      -1.000   17000.00 
H2/2.0/ H2O/0.0/ CO/1.75/ CO2/3.6/ 
HCO+H2O<=>CO+H+H2O             2.244E+18      -1.000   17000.00 
HCO+O2<=>CO+HO2                1.204E+10       0.807    -727.00 
END
