ELEMENTS
N  H  HE AR O  C  
END
SPECIES
N2                H2                HE                H                 AR                O                 O2                OH                
H2O               HO2               H2O2              C                 CO                CH                CH3               CH2O              
HCO               T-CH2             S-CH2             CH3OH             C2H               C2H2              CO2               C2H3              
C2H4              CH4               CH3O              CH3O2             C2H5              CH2CO             HCCO              O2CHO             
HOCHO             CH3CHO            CH2OH             HOCH2O            OCHO              CH3CO2            HO2CHO            C3H2O             
C3H3              HCCOH             H2C2              N-C4H3            S-C3H5            C4H4              I-C4H5            N-C4H5            
CH2CHO            A-C3H5            C4H6              C2H3CHO           C2H5O             C3H6O1-2          C4H7              N-C3H7            
I-C3H7            C2H5CO            C2H4O2H           C2H6              P-C4H8            C2H5CHO           C2H5O2            C2O               
CH3COCH2          C2H5COCH2         CH3CO             CH3COCH2O         CH3CO3            CH3OCO            C2H5O2H           CH3CO3H           
C3H2              C4H2              I-C4H3            A-C3H4            A1-C6H6           C5H5              P-C3H4            C5H4CH2           
A1--C6H5          T-C3H5            C2H3CHCHO         C3H6              C3H5O             CH3CHCO           C3H6OOH1-2        I-C3H7O2          
C6H12-1           C3H8              N-C3H7O           N-C3H7O2          CH3CHCHO          CH3COCH2O2        C3H6O1-3          ME2J              
MEMJ              C3H6OOH-3J1       ME2DO             CH3COCH2O2H       C3KET12           C3KET13           C3H6OOH1-2O2      C3H6OOH1-3O2      
C4H               C6H2              O-C6H4            C8H2              CDCCDCCJ          C2H3CHOCH2        C4H8-2            C4H7O             
P-C4H9            C4H9CO            P-C4H9O2          C4H6O23           C2H5CHCO          S-C3H5CHO         C3H7CHO           MP2D2J            
MP2D3J            MP2DMJ            MP2D              BAOJ              A2-C10H8          S-C5H5O           C5H4O             C5H6              
CDCCJCDC          C9H8              T-C5H5O           C5H81-3           C5H9              C5H10             C5H11             C5H11O2-1         
C5H11CO           N-C4H9CHO         MB2D              MB2J              MB2O              MBMJ              MB3J              MB3O              
MB4J              MB-C5H10O2        C5H10OOH1-3       C5H10OOH1-3O2     NC5KET13          A1C2H5            A1O-C6H5O         P2-C12H10         
A1C2H2            A1C2H3            OC6H4O            A1OH              C6H11             C6H13             N-C12H26          C6H13O-1          
C6H13O2-1         C6H13CO           N-C5H11CHO        C6H12OOH1-3       C6H12OOH1-3O2     NC6KET13          A1CH2             A1CH2O            
A1CHO             A1CH2OH           A1CH3*            OA1CH3            A1CH3             HOA1CH3           C7H13             C7H14             
C8H17             C7H15             C7H15O            C7H15O2-1         C10H20-1          C7H15CO           N-C6H13CHO        C7H14OOH1-3       
C7H14OOH1-3O2     NC7KET13          A1C2H*            A3-C14H10         A2--C10H7         A1C2H             A1C2H3*           A1C2H4            
C8H9O2            A1CH3CH2          A1CH3CHO          A2CH3             A1CH3CH3          C8H15             C8H16-1           C8H17O2-1         
C8H17CO           A1CHOCH2          A1CHOCHO          N-C7H15CHO        C8H8OOH           OC8H7OOH          C8OOH1-3          C8OOH1-3O2        
C8KET1-3          C9H7              A2R5              C9H6O             C9H17             C9H18-1           C9H19             C9H19O2-1         
N-C8H17CHO        C9OOH1-3          C9OOH1-3O2        C9KET1-3          A2*-C10H7         A2O-C10H7O        A2C2H2B           A2C2H2A           
FLTN              A2OH              C10H19            C10H21            C10H21O2-1        C9H19CO           N-C9H19CHO        C10OOH1-3         
C10OOH1-3O2       C10KET1-3         A2CH2             A2CHO             A2CH2O            C11H21            C11H22-1          C11H23-1          
C11H23O2-1        A2C2HA*           A3--C14H9         A2C2HB*           A2R5-             A3R5              A2R5C2H2          A2C2HA            
A2C2HB            P2--C12H9         C12H23            C12H24            C12H25            C12H25O           C12H25O2          C12O-R4           
C12O-R5           C12OOH-T5         C12OOH-T6         C12OOH-T7         C12OOHO2-T6       C12OOHO2-T7       C12KET-T6         C12KET-T7         
A2R5C2H*          A3R5-             A2R5C2H           A3*-C14H9         A4-C16H10         A4R5              A4--C16H9         MP3J              
C3H6CHO-2         C3H6CHO-1         S-C3H5CO          MBMO              MBMDO             MB4O              MB4DO             MB2OO             
MB3OO             MB4OO             MBMOO             MB2OOH4J          MB3OOH2J          MB3OOHMJ          MB4OOH3J          MB4OOHMJ          
MB4OOH2J          MBMOOH3J          MBMOOH2J          MBMOOH4J          MB3D              MB2OOH            MB3OOH            MB4OOH            
MBMOOH            MBCY3O2           MBCY4O3           MBCY4O2           MBCY2OM           MBCY3OM           MMCYMOO1          N-C3H7COOO        
N-C3H7COOOH       MP3DO2D           C2H5COCO          CHOCO2J           CH3COCH2CO        ME2JDO            COCO              MPMDO2D           
MPMJDO2D          C2H3CO2           MBMOOH3O2         MBMOOH4O2         MB2OOH4O2         MB3OOHMO2         MB4OOH2O2         MB4OOHMO2         
MBKET42           MB3MOOH2J         MBKET3M           MB3MOOH4J         MB24OOHMJ         MBKET24           MB42OOHMJ         MBM4OOH2J         
MBKETM4           MBKET4M           MB3DMOOH          MB3D2OOH          MP2DO3J           BAOJ3DO           MPMDO3J           BAOJ4DO           
MB2OOH3J          MB2OOHMJ          MB3OOH4J          MB3DO             C2H3OOH           MMMOOH1J          MBCY4OM           MEMOOH2J          
MECY2OM           CHOOCO            MBMJDO            MB4JDO            MEMDO2J           ME2DOMJ           HCOCO             C2H4CHO           
END
REACTIONS
H2+HE<=>2H+HE                            5.840e+18   -1.100 104380.02
H2+AR<=>2H+AR                            5.840e+18   -1.100 104380.02
H2+M<=>2H+M                              4.577e+19   -1.400 104380.02
H2/2.50/ HE/0.00/ AR/0.00/ H2O/12.00/ CO/1.90/ CO2/3.80/ 
2O+HE<=>O2+HE                            1.886e+13    0.000  -1788.00
2O+AR<=>O2+AR                            1.886e+13    0.000  -1788.00
O+H2<=>H+OH                              3.818e+12    0.000   7947.90
     DUPLICATE
2O+M<=>O2+M                              6.165e+15   -0.500      0.00
H2/2.50/ HE/0.00/ AR/0.00/ H2O/12.00/ CO/1.90/ CO2/3.80/ 
O+H+M<=>OH+M                             4.714e+18   -1.000      0.00
H2/2.50/ HE/0.75/ AR/0.75/ H2O/12.00/ CO/1.90/ CO2/3.80/ 
O+H2<=>H+OH                              8.792e+14    0.000  19169.93
     DUPLICATE
H2+OH<=>H2O+H                            2.160e+08    1.510   3429.97
2OH<=>O+H2O                              3.340e+04    2.420  -1929.97
2H2O<=>H+OH+H2O                          1.006e+26   -2.440 120179.97
H2O+M<=>H+OH+M                           6.064e+27   -3.322 120789.91
N2/2.00/ H2/3.00/ HE/1.10/ O2/1.50/ H2O/0.00/ CO/1.90/ CO2/3.80/ 
H+O2<=>O+OH                              1.040e+14    0.000  15286.09
H+O2(+M)<=>HO2(+M)                       4.651e+12    0.440      0.00
H2/2.00/ HE/0.80/ AR/0.67/ O2/0.78/ H2O/14.00/ CO/1.90/ CO2/3.80/ 
     LOW  /  6.366e+20   -1.720    524.86 /
!     FCCHECK/  0.5000      0.00 0.5000 1000000000000000019884624838656.00 0.0000      0.00
     TROE/     0.5     0.00 1000000000000000019884624838656.00        /
HO2+H<=>H2+O2                            2.750e+06    2.090  -1451.00
HO2+OH<=>H2O+O2                          2.890e+13    0.000   -496.89
2HO2<=>H2O2+O2                           4.200e+14    0.000  11982.07
     DUPLICATE
HO2+O<=>O2+OH                            2.850e+10    1.000   -723.95
HO2+H<=>2OH                              7.079e+13    0.000    294.93
2HO2<=>H2O2+O2                           1.300e+11    0.000  -1629.30
     DUPLICATE
H2O2+H<=>H2O+OH                          2.410e+13    0.000   3969.89
H2O2+OH<=>HO2+H2O                        1.740e+12    0.000    318.12
     DUPLICATE
H2O2+O<=>OH+HO2                          9.550e+06    2.000   3969.89
H2O2+H<=>HO2+H2                          4.820e+13    0.000   7950.05
H2O2(+M)<=>2OH(+M)                       2.000e+12    0.900  48749.04
N2/1.50/ H2/3.70/ HE/0.65/ O2/1.20/ H2O/7.50/ H2O2/7.70/ CO/2.80/ CO2/1.60/ 
     LOW  /  2.490e+24   -2.300  48750.00 /
!     FCCHECK/  0.5700      0.00 0.4300 1000000000000000019884624838656.00 0.0000      0.00
     TROE/    0.43     0.00 1000000000000000019884624838656.00        /
H2O2+OH<=>HO2+H2O                        7.590e+13    0.000   7270.08
     DUPLICATE
C+OH<=>CO+H                              5.000e+13    0.000      0.00
C+O2<=>CO+O                              5.800e+13    0.000    576.00
CH+H2(+M)<=>CH3(+M)                      1.970e+12    0.430   -370.46
H2/2.00/ AR/0.70/ H2O/12.00/ CO/1.75/ CO2/3.60/ CH4/2.00/ C2H6/3.00/ 
     LOW  /  4.820e+25   -2.800    590.34 /
     TROE/   0.578   122.00   2535.00   9365.00 /
CH+H2O<=>CH2O+H                          5.710e+12    0.000   -755.26
CH+O<=>CO+H                              5.700e+13    0.000      0.00
CH+H<=>C+H2                              1.650e+14    0.000      0.00
CH+OH<=>HCO+H                            3.000e+13    0.000      0.00
CH+O2<=>HCO+O                            6.710e+13    0.000      0.00
CH+H2<=>T-CH2+H                          1.080e+14    0.000   3109.46
S-CH2+H2O(+M)<=>CH3OH(+M)                4.820e+17   -1.160   1144.84
H2/2.00/ AR/0.70/ H2O/12.00/ CO/1.75/ CO2/3.60/ CH4/2.00/ C2H6/3.00/ 
     LOW  /  1.880e+38   -6.360   5040.63 /
     TROE/  0.6027   208.00   3922.00  10180.00 /
S-CH2+O2<=>CO+H2O                        1.200e+13    0.000      0.00
S-CH2+O<=>HCO+H                          1.500e+13    0.000      0.00
S-CH2+O<=>CO+H2                          1.500e+13    0.000      0.00
S-CH2+H2O<=>T-CH2+H2O                    3.000e+13    0.000      0.00
S-CH2+AR<=>T-CH2+AR                      9.000e+12    0.000    599.90
S-CH2+H2O=>H2+CH2O                       6.820e+10    0.250   -934.51
S-CH2+H2<=>CH3+H                         7.000e+13    0.000      0.00
S-CH2+O2<=>H+OH+CO                       2.800e+13    0.000      0.00
S-CH2+OH<=>CH2O+H                        3.000e+13    0.000      0.00
S-CH2+H<=>CH+H2                          3.000e+13    0.000      0.00
T-CH2+C<=>C2H+H                          5.000e+13    0.000      0.00
T-CH2+O2<=>CH2O+O                        2.400e+12    0.000   1500.96
T-CH2+O<=>HCO+H                          8.000e+13    0.000      0.00
T-CH2+O2=>OH+H+CO                        5.000e+12    0.000   1500.96
2T-CH2=>C2H2+2H                          2.000e+14    0.000  10989.48
T-CH2+HO2<=>CH2O+OH                      2.000e+13    0.000      0.00
T-CH2+CH<=>C2H2+H                        4.000e+13    0.000      0.00
2T-CH2<=>C2H2+H2                         1.600e+15    0.000  11943.12
T-CH2+H2<=>H+CH3                         5.000e+05    2.000   7229.92
T-CH2+OH<=>CH2O+H                        2.000e+13    0.000      0.00
T-CH2+O2=>CO2+2H                         5.800e+12    0.000   1500.96
T-CH2+OH<=>CH+H2O                        1.130e+07    2.000   2999.52
T-CH2+H(+M)<=>CH3(+M)                    6.000e+14    0.000      0.00
H2/2.00/ AR/0.70/ H2O/12.00/ CO/1.75/ CO2/3.60/ CH4/2.00/ C2H6/3.00/ 
     LOW  /  1.040e+26   -2.760   1598.95 /
     TROE/   0.562    91.00   5836.00   8552.00 /
CH3+CH<=>C2H3+H                          3.000e+13    0.000      0.00
CH3+T-CH2<=>C2H4+H                       1.000e+14    0.000      0.00
CH3+OH=>H2+CH2O                          8.000e+09    0.000  -1754.30
CH3+C<=>C2H2+H                           5.000e+13    0.000      0.00
CH3+O=>H+H2+CO                           3.370e+13    0.000      0.00
CH3+OH<=>S-CH2+H2O                       6.440e+17   -1.340   1417.30
CH3+HO2<=>CH4+O2                         3.610e+12    0.000      0.00
CH3+O<=>CH2O+H                           5.060e+13    0.000      0.00
CH3+HO2<=>CH3O+OH                        1.000e+13    0.000      0.00
CH3+O2<=>CH3O+O                          1.380e+13    0.000  30521.03
CH3+O2<=>CH2O+OH                         5.870e+11    0.000  13840.82
CH3+OH<=>T-CH2+H2O                       5.600e+07    1.600   5420.65
CH3+S-CH2<=>C2H4+H                       1.200e+13    0.000   -571.22
CH3+OH(+M)<=>CH3OH(+M)                   2.790e+18   -1.430   1331.26
H2/2.00/ AR/0.70/ H2O/12.00/ CO/1.75/ CO2/3.60/ CH4/2.00/ C2H6/3.00/ 
     LOW  /  4.000e+36   -5.920   3140.54 /
     TROE/   0.412   195.00   5900.00   6394.00 /
CH3+O2(+M)<=>CH3O2(+M)                   1.010e+08    1.630      0.00

     LOW  /  3.820e+31   -4.890   3432.12 /
     TROE/   0.045   880.10 2500000000.00 1786000000.00 /
CH3+H(+M)<=>CH4(+M)                      6.920e+13    0.180      0.00
H2/2.00/ AR/0.70/ H2O/6.00/ CO/1.50/ CO2/2.00/ CH4/3.00/ C2H6/3.00/ 
     LOW  /  3.470e+38   -6.300   5074.09 /
     TROE/   0.783    74.00   2941.00   6964.00 /
CH3+H2O2<=>CH4+HO2                       2.450e+04    2.470   5179.25
2CH3<=>C2H5+H                            6.840e+12    0.100  10599.90
CH4+S-CH2<=>2CH3                         1.600e+13    0.000   -571.22
CH4+H<=>CH3+H2                           6.600e+08    1.620  10841.30
CH4+OH<=>CH3+H2O                         1.000e+08    1.600   3119.02
CH4+CH<=>C2H4+H                          6.000e+13    0.000      0.00
CH4+O<=>CH3+OH                           1.020e+09    1.500   8599.43
CH4+T-CH2<=>2CH3                         2.460e+06    2.000   8269.60
S-CH2+CO<=>T-CH2+CO                      9.000e+12    0.000      0.00
CO+OH<=>CO2+H                            7.046e+04    2.053   -355.64
     DUPLICATE
CO+HO2<=>CO2+OH                          1.570e+05    2.180  17942.64
CO+O2<=>CO2+O                            1.050e+12    0.000  47700.05
T-CH2+CO(+M)<=>CH2CO(+M)                 8.100e+11    0.500   4510.04
H2/2.00/ AR/0.70/ H2O/12.00/ CO/1.75/ CO2/3.60/ CH4/2.00/ C2H6/3.00/ 
     LOW  /  2.690e+33   -5.110   7096.08 /
     TROE/  0.5907   275.00   1226.00   5185.00 /
CO+H2(+M)<=>CH2O(+M)                     4.300e+07    1.500  79600.86
H2/2.00/ AR/0.70/ H2O/12.00/ CO/1.75/ CO2/3.60/ CH4/2.00/ C2H6/3.00/ 
     LOW  /  5.070e+27   -3.420  84349.90 /
     TROE/   0.932   197.00   1540.00  10300.00 /
CO+O(+M)<=>CO2(+M)                       1.800e+10    0.000   2385.28
H2/2.00/ AR/0.70/ H2O/12.00/ CO/1.75/ CO2/3.60/ 
     LOW  /  1.550e+24   -2.790   4192.16 /
!     FCCHECK/  0.0000      0.00 0.0000      0.00 1.0000      0.00
     TROE/       1     1.00 10000000.00 10000000.00 /
CH+CO(+M)<=>HCCO(+M)                     5.000e+13    0.000      0.00
H2/2.00/ AR/0.70/ H2O/12.00/ CO/1.75/ CO2/3.60/ CH4/2.00/ C2H6/3.00/ 
     LOW  /  2.690e+28   -3.740   1935.95 /
     TROE/  0.5757   237.00   1652.00   5069.00 /
CO+OH<=>CO2+H                            5.757e+12   -0.664    331.74
     DUPLICATE
HCO+O2=>O2CHO                            1.200e+11    0.000  -1099.90
HCO+O<=>CO+OH                            3.000e+13    0.000      0.00
HCO+OH<=>CO+H2O                          3.020e+13    0.000      0.00
HCO+O2<=>CO+HO2                          7.580e+12    0.000    409.89
HCO+H<=>CO+H2                            1.200e+14    0.000      0.00
HCO+OH=>HOCHO                            1.000e+14    0.000      0.00
CH3+HCO<=>CH4+CO                         2.650e+13    0.000      0.00
HCO+O<=>CO2+H                            3.000e+13    0.000      0.00
CH3+HCO<=>CH3CHO                         5.000e+13    0.000      0.00
HCO+H(+M)<=>CH2O(+M)                     1.090e+12    0.480   -260.52
H2/2.00/ AR/0.70/ H2O/12.00/ CO/1.75/ CO2/3.60/ CH4/2.00/ C2H6/3.00/ 
     LOW  /  2.470e+24   -2.570    425.43 /
     TROE/  0.7824   271.00   2755.00   6570.00 /
HCO+M<=>CO+H+M                           4.748e+11    0.659  14873.80
H2/2.00/ H2O/0.00/ CO/1.75/ CO2/3.60/ 
CH2O+HO2<=>HCO+H2O2                      5.600e+06    2.000  12000.48
CH2O+OH<=>HCO+H2O                        3.430e+09    1.180   -446.94
CH2O+O<=>HCO+OH                          3.900e+13    0.000   3539.67
CH2O+CH<=>CH2CO+H                        9.460e+13    0.000   -516.25
CH3+CH2O<=>CH4+HCO                       3.320e+03    2.810   5860.42
CH2O+H<=>HCO+H2                          5.740e+07    1.900   2741.40
CH2O+O2<=>HCO+HO2                        1.000e+14    0.000  40000.00
CH2O+H(+M)<=>CH2OH(+M)                   5.400e+11    0.450   3599.43
H2/2.00/ AR/0.70/ H2O/12.00/ CO/1.75/ CO2/3.60/ CH4/2.00/ C2H6/3.00/ 
     LOW  /  1.270e+32   -4.820   6529.64 /
     TROE/  0.7187   103.00   1291.00   4160.00 /
CH2O+OH=>HOCH2O                          4.500e+15   -1.100      0.00
CH2OH+H<=>CH2O+H2                        2.000e+13    0.000      0.00
CH2OH+H<=>S-CH2+H2O                      3.280e+13   -0.090    609.46
CH2OH+H<=>CH3+OH                         1.650e+11    0.650   -284.42
CH2OH+H(+M)<=>CH3OH(+M)                  1.060e+12    0.500     86.04
H2/2.00/ AR/0.70/ H2O/12.00/ CO/1.75/ CO2/3.60/ CH4/2.00/ C2H6/3.00/ 
     LOW  /  4.360e+31   -4.650   5081.26 /
     TROE/     0.6   100.00   9000.00  10000.00 /
CH2OH+OH<=>CH2O+H2O                      5.000e+12    0.000      0.00
CH2OH+O<=>CH2O+OH                        1.000e+13    0.000      0.00
CH2OH+O2<=>CH2O+HO2                      1.800e+13    0.000    901.05
CH3O+O<=>CH2O+OH                         1.000e+13    0.000      0.00
CH3O+H(+M)<=>CH3OH(+M)                   2.430e+12    0.520     50.19
H2/2.00/ AR/0.70/ H2O/12.00/ CO/1.75/ CO2/3.60/ CH4/2.00/ C2H6/3.00/ 
     LOW  /  4.660e+41   -7.440  14079.83 /
     TROE/     0.7   100.00  90000.00  10000.00 /
CH3O+H<=>CH2OH+H                         4.150e+07    1.630   1924.00
CH3O+H<=>S-CH2+H2O                       2.620e+14   -0.230   1070.75
CH3O+OH<=>CH2O+H2O                       5.000e+12    0.000      0.00
2CH3O=>CH3OH+CH2O                        6.030e+13    0.000      0.00
CH3O+O2<=>CH2O+HO2                       4.280e-13    7.600  -3530.11
CH3O+H<=>CH2O+H2                         2.000e+13    0.000      0.00
CH3O+H<=>CH3+OH                          1.500e+12    0.500   -109.94
CH3OH+CH3<=>CH3O+CH4                     1.000e+07    1.500   9940.25
CH3OH+O<=>CH3O+OH                        1.300e+05    2.500   5000.00
CH3OH+OH<=>CH2OH+H2O                     1.440e+06    2.000   -841.30
CH3OH+O<=>CH2OH+OH                       3.880e+05    2.500   3099.90
CH3OH+CH3<=>CH2OH+CH4                    3.000e+07    1.500   9940.25
CH3OH+OH<=>CH3O+H2O                      6.300e+06    2.000   1500.96
CH3OH+HO2=>CH2OH+H2O2                    3.980e+13    0.000  19400.10
CH3OH+H<=>CH3O+H2                        4.200e+06    2.100   4870.94
CH3OH+H<=>CH2OH+H2                       1.700e+07    2.100   4870.94
H+CO2+M=>OCHO+M                          7.500e+13    0.000  29000.00

S-CH2+CO2<=>T-CH2+CO2                    7.000e+12    0.000      0.00
S-CH2+CO2<=>CH2O+CO                      1.400e+13    0.000      0.00
CH+CO2<=>HCO+CO                          1.900e+14    0.000  15791.11
CH3+CO2+M=>CH3CO2+M                      4.548e+08    1.378  17520.08

OCHO+M=>H+CO2+M                          5.318e+14   -0.353  17580.07

OCHO+OH=>HO2CHO                          1.000e+13    0.000      0.00
HOCHO+O=>CO+2OH                          1.770e+18   -1.900   2974.90
HOCHO+H=>H2+CO2+H                        4.240e+06    2.100   4868.07
HOCHO+CH3=>CH4+CO+OH                     3.900e-07    5.800   2200.05
HOCHO+OH=>H2O+CO+OH                      1.850e+07    1.510   -962.00
HOCHO+H=>H2+CO+OH                        6.030e+13   -0.350   2988.05
HOCHO+OH=>H2O+CO2+H                      2.620e+06    2.060    916.11
HOCHO=>CO+H2O                            2.450e+12    0.000  60469.89
HOCHO+HO2=>H2O2+CO+OH                    1.000e+12    0.000  11919.93
HOCHO=>HCO+OH                            3.471e+22   -1.542 110700.05
HOCHO+H=>HOCH2O                          1.123e+15   -0.295  11500.00
CH3OH+CH3O2=>CH2OH+CH3O+OH               1.810e+12    0.000  13710.09
H2+CH3O2=>H+CH3O+OH                      1.500e+14    0.000  26030.11
CH3O2+CH2O=>CH3O+OH+HCO                  1.990e+12    0.000  11670.65
CH3O2+HO2=>CH3O+OH+O2                    2.470e+11    0.000  -1570.27
CH3O2+OH=>CH3OH+O2                       6.000e+13    0.000      0.00
CH3O2+O=>CH3O+O2                         3.600e+13    0.000      0.00
CH3O2+CH3<=>2CH3O                        1.000e+13    0.000  -1199.81
CH3O2+H=>CH3O+OH                         9.600e+13    0.000      0.00
2CH3O2=>2CH3O+O2                         1.400e+16   -1.610   1859.46
HOCH2O=>HOCHO+H                          1.000e+14    0.000  14900.10
HOCH2O=>CH2O+OH                          2.056e+21   -2.336  25729.92
O2CHO=>HCO+O2                            9.959e+15   -1.126  41000.00
CH2O+O2CHO=>HCO+HO2CHO                   1.990e+12    0.000  11659.89
HO2CHO=>OCHO+OH                          5.010e+14    0.000  40150.10
C2H+HCO<=>C3H2O                          5.000e+13    0.000      0.00
C2H+OH<=>H+HCCO                          2.000e+13    0.000      0.00
C2H+O2<=>HCO+CO                          1.000e+13    0.000   -755.26
C2H+H(+M)<=>C2H2(+M)                     1.000e+17   -1.000      0.00
H2/2.00/ AR/0.70/ H2O/12.00/ CO/1.75/ CO2/3.60/ CH4/2.00/ C2H6/3.00/ 
     LOW  /  2.600e+33   -4.800   1900.10 /
     TROE/  0.6464   132.00   1315.00   5566.00 /
C2H+OH<=>C2H2+O                          1.810e+13    0.000      0.00
C2H+H2<=>C2H2+H                          3.310e+06    2.260    901.05
C2H+O<=>CH+CO                            5.000e+13    0.000      0.00
C2H+CH3<=>C3H3+H                         2.410e+13    0.000      0.00
C2H2+S-CH2<=>C3H3+H                      1.900e+14    0.000      0.00
C2H2+OH<=>C2H+H2O                        2.630e+06    2.140  17060.23
C2H2+OH<=>HCCOH+H                        2.410e+06    2.000  12712.72
C2H2+M<=>H2C2+M                          2.450e+15   -0.640  49698.85
H2/2.00/ AR/0.70/ H2O/12.00/ CO/1.75/ CO2/3.60/ CH4/2.00/ C2H6/3.00/ 
C2H2+C2H<=>N-C4H3                        7.800e+13    0.000      0.00
C2H2+CH3<=>S-C3H5                        7.450e+43  -10.130  18522.94
C2H2+HCO=>C2H3+CO                        1.000e+07    2.000   6000.00
C2H2+O<=>HCCO+H                          8.100e+06    2.000   1900.10
C2H2+OH<=>CH2CO+H                        7.530e+06    1.550   2105.64
C2H2+O<=>T-CH2+CO                        1.250e+07    2.000   1900.10
C2H2+OH<=>CH3+CO                         1.280e+09    0.730   2578.87
C2H2+H(+M)<=>C2H3(+M)                    1.710e+10    1.270   2707.93
H2/2.00/ AR/0.70/ H2O/12.00/ CO/1.75/ CO2/3.60/ CH4/2.00/ C2H6/3.00/ 
     LOW  /  6.340e+31   -4.660   3781.07 /
!     FCCHECK/  0.2122 -10210.00 0.0000      1.00 0.0000      1.00
     TROE/  0.2122     1.00 -10210.00 /
H2C2+C2H2<=>C4H4                         1.900e+14    0.000      0.00
H2C2+O2<=>2HCO                           1.000e+13    0.000      0.00
H2C2+O2<=>T-CH2+CO2                      3.300e+12    0.000      0.00
2C2H3<=>I-C4H5+H                         1.200e+22   -2.440  13654.40
2C2H3<=>N-C4H5+H                         2.400e+20   -2.040  15363.29
C2H3+C2H2<=>N-C4H5                       1.320e+12    0.160   8312.62
C2H3+HCO<=>C2H4+CO                       9.000e+13    0.000      0.00
C2H3+HO2=>CH2CHO+OH                      1.000e+13    0.000      0.00
C2H3+CH3<=>A-C3H5+H                      1.930e+18   -1.250   7669.69
C2H3+O<=>CH2CHO                          1.030e+13    0.210   -427.82
2C2H3<=>C2H2+C2H4                        9.600e+11    0.000      0.00
C2H3+H2O2<=>C2H4+HO2                     1.210e+10    0.000   -595.12
C2H3+OH<=>C2H2+H2O                       5.000e+12    0.000      0.00
C2H3+O2<=>C2H2+HO2                       1.340e+06    1.610   -384.80
C2H3+CH3<=>C2H2+CH4                      9.030e+12    0.000   -764.82
C2H3+H<=>C2H2+H2                         3.000e+13    0.000      0.00
C2H3+O2<=>CH2CHO+O                       3.030e+11    0.290     11.95
C2H3+O2<=>HCO+CH2O                       4.580e+16   -1.390   1015.77
C2H3+H(+M)<=>C2H4(+M)                    6.080e+12    0.270    279.64
H2/2.00/ AR/0.70/ H2O/12.00/ CO/1.75/ CO2/3.60/ CH4/2.00/ C2H6/3.00/ 
     LOW  /  1.400e+30   -3.860   3319.79 /
     TROE/   0.782   207.50   2663.00   6095.00 /
2C2H3<=>C4H6                             8.430e+13    0.000      0.00
C2H3+HCO<=>C2H3CHO                       1.800e+13    0.000      0.00
C2H4+OH<=>C2H5O                          3.750e+36   -7.800   7060.23
C2H4+C2H<=>C4H4+H                        1.200e+13    0.000      0.00
C2H4(+M)<=>H2C2+H2(+M)                   8.000e+12    0.440  88800.19
H2/2.00/ AR/0.70/ H2O/12.00/ CO/1.75/ CO2/3.60/ CH4/2.00/ C2H6/3.00/ 
     LOW  /  7.000e+50   -9.310  99899.62 /
     TROE/   0.735   180.00   1035.00   5417.00 /
C2H4+CH2O=>C3H6O1-2                      2.970e+11    1.000  31080.07
C2H4+C2H3<=>C4H7                         1.880e+06    1.840   3059.27
H2C2+C2H4<=>C4H6                         1.000e+12    0.000      0.00
C2H4+CH3O2=>C2H3+CH3O+OH                 2.230e+12    0.000  17190.01
C2H4+O=>C2H3+OH                          2.420e+11    0.700   8960.33
C2H4+O<=>T-CH2+CH2O                      7.150e+04    2.470    929.73
C2H4+O2=>CH3+CO2+H                       4.900e+12    0.420  75800.67
C2H4+CH3<=>C2H3+CH4                      2.270e+05    2.000   9199.33
C2H4+H<=>C2H3+H2                         1.270e+05    2.750  11649.14
C2H4+OH<=>C2H3+H2O                       1.310e-01    4.200   -860.42
C2H4+O<=>CH3+HCO                         3.890e+08    1.360    886.71
C2H4+O<=>CH2CHO+H                        7.660e+09    0.880   1140.06
C2H4+O2<=>C2H3+HO2                       4.220e+13    0.000  62100.86
C2H4+CH3(+M)<=>N-C3H7(+M)                2.550e+06    1.600   5700.29
H2/2.00/ AR/0.70/ H2O/12.00/ CO/1.75/ CO2/3.60/ CH4/2.00/ C2H6/3.00/ 
     LOW  /  3.000e+63  -14.600  18169.22 /
     TROE/  0.1894   277.00   8748.00   7891.00 /
C2H4+H(+M)<=>C2H5(+M)                    1.370e+09    1.460   1355.16
H2/2.00/ AR/0.70/ H2O/12.00/ CO/1.75/ CO2/3.60/ CH4/2.00/ C2H6/3.00/ 
     LOW  /  2.030e+39   -6.640   5769.60 /
     TROE/  -0.569   299.00  -9147.00    152.40 /
C2H4+CH3=>I-C3H7                         4.100e+11    0.000   7203.63
CH3O2+C2H5=>CH3O+C2H5O                   8.000e+12    0.000  -1000.00
C2H5+O<=>C2H5O                           3.170e+13    0.030   -394.36
C2H5+CO=>C2H5CO                          1.510e+11    0.000   4809.99
C2H5+HO2<=>C2H5O+OH                      3.100e+13    0.000      0.00
C2H5+O2=>C2H4O2H                         2.420e+35   -8.030   8311.90
C2H5+O2=>CH3CHO+OH                       8.265e+02    2.410   5284.89
C2H5+HCO<=>C2H6+CO                       1.200e+14    0.000      0.00
C2H5+O2<=>C2H4+HO2                       1.920e+07    1.020  -2033.94
C2H5+HO2<=>C2H4+H2O2                     3.000e+11    0.000      0.00
C2H5+C2H3=>2C2H4                         6.859e+11    0.110  -4299.95
C2H5+HO2<=>C2H6+O2                       3.000e+11    0.000      0.00
C2H5+H<=>C2H4+H2                         2.000e+12    0.000      0.00
C2H3+C2H5=>P-C4H8                        9.000e+12    0.000      0.00
C2H5+CH3<=>C2H4+CH4                      1.180e+04    2.450   2920.65
C2H5+H(+M)<=>C2H6(+M)                    5.210e+17   -0.990   1579.83
H2/2.00/ AR/0.70/ H2O/12.00/ CO/1.75/ CO2/3.60/ CH4/2.00/ C2H6/3.00/ 
     LOW  /  1.990e+41   -7.080   6684.99 /
     TROE/  0.8422   125.00   2219.00   6882.00 /
C2H5+HCO=>C2H5CHO                        1.810e+13    0.000      0.00
C2H5+O2=>C2H5O2                          2.876e+56  -13.820  14619.98
C2H6+S-CH2<=>C2H5+CH3                    4.000e+13    0.000   -549.71
C2H6+O<=>C2H5+OH                         3.170e+01    3.800   3130.98
C2H6+H<=>C2H5+H2                         1.700e+05    2.700   5740.92
C2H6+OH<=>C2H5+H2O                       1.610e+06    2.220    740.92
C2H6+CH3<=>C2H5+CH4                      8.430e+14    0.000  22256.21
C2H6+HO2<=>C2H5+H2O2                     2.610e+02    3.370  15913.00
C2H6(+M)<=>2CH3(+M)                      1.880e+50   -9.720 107342.26
H2/2.00/ AR/0.70/ H2O/12.00/ CO/1.75/ CO2/3.60/ CH4/2.00/ C2H6/3.00/ 
     LOW  /  3.720e+65  -13.140 101579.83 /
     TROE/    0.39   100.00   1900.00   6000.00 /
C2O+OH<=>H+2CO                           2.000e+13    0.000      0.00
C2O+O2<=>O+2CO                           2.000e+13    0.000      0.00
C2O+O<=>2CO                              5.000e+13    0.000      0.00
C2O+H<=>CH+CO                            5.000e+13    0.000      0.00
HCCO+OH<=>C2O+H2O                        3.000e+13    0.000      0.00
C2H2+HCCO<=>C3H3+CO                      1.000e+11    0.000   2999.52
HCCO+CH3<=>C2H4+CO                       5.000e+13    0.000      0.00
HCCO+T-CH2<=>C2H3+CO                     3.000e+13    0.000      0.00
2HCCO<=>C2H2+2CO                         1.000e+13    0.000      0.00
HCCO+O2<=>OH+2CO                         4.200e+10    0.000    853.25
HCCO+CH<=>C2H2+CO                        5.000e+13    0.000      0.00
HCCO+H<=>S-CH2+CO                        1.000e+14    0.000      0.00
HCCO+OH<=>2HCO                           1.000e+13    0.000      0.00
HCCO+O<=>H+2CO                           1.000e+14    0.000      0.00
CH2CO+CH3=>CH3COCH2                      1.000e+11    0.000   6000.00
CH2CO+C2H5=>C2H5COCH2                    1.000e+11    0.000      0.00