THERMO
   300.000  1000.000  6000.000
! 
N2                      N   2               G   200.000  6000.000 1000.00      1
 2.95257637e+00 1.39690040e-03-4.92631603e-07 7.86010195e-11-4.60755204e-15    2
-9.23948688e+02 5.87188762e+00 3.53100528e+00-1.23660988e-04-5.02999433e-07    3
 2.43530612e-09-1.40881235e-12-1.04697628e+03 2.96747038e+00                   4
! 
HE                      He  1               G   200.000  6000.000 1000.00      1
 2.50000000e+00 0.00000000e+00 0.00000000e+00 0.00000000e+00 0.00000000e+00    2
-7.45375000e+02 9.28723974e-01 2.50000000e+00 0.00000000e+00 0.00000000e+00    3
 0.00000000e+00 0.00000000e+00-7.45375000e+02 9.28723974e-01                   4
! 
H2                      H   2               G   200.000  6000.000 1000.00      1
 2.93286575e+00 8.26608026e-04-1.46402364e-07 1.54100414e-11-6.88804800e-16    2
-8.13065581e+02-1.02432865e+00 2.34433112e+00 7.98052075e-03-1.94781510e-05    3
 2.01572094e-08-7.37611761e-12-9.17935173e+02 6.83010238e-01                   4
! 
H                       H   1               G   200.000  6000.000 1000.00      1
 2.50000000e+00 0.00000000e+00 0.00000000e+00 0.00000000e+00 0.00000000e+00    2
 2.54736600e+04-4.46682850e-01 2.50000000e+00 0.00000000e+00 0.00000000e+00    3
 0.00000000e+00 0.00000000e+00 2.54736600e+04-4.46682850e-01                   4
! 
O2                      O   2               G   200.000  6000.000 1000.00      1
 3.66096065e+00 6.56365811e-04-1.41149627e-07 2.05797935e-11-1.29913436e-15    2
-1.21597718e+03 3.41536279e+00 3.78245636e+00-2.99673416e-03 9.84730201e-06    3
-9.68129509e-09 3.24372837e-12-1.06394356e+03 3.65767573e+00                   4
! 
O                       O   1               G   200.000  6000.000 1000.00      1
 2.54363697e+00-2.73162486e-05-4.19029520e-09 4.95481845e-12-4.79553694e-16    2
 2.92260120e+04 4.92229457e+00 3.16826710e+00-3.27931884e-03 6.64306396e-06    3
-6.12806624e-09 2.11265971e-12 2.91222592e+04 2.05193346e+00                   4
! 
H2O                     H   2O   1          G   200.000  6000.000 1000.00      1
 2.67703890e+00 2.97318160e-03-7.73768890e-07 9.44335140e-11-4.26899910e-15    2
-2.98858940e+04 6.88255000e+00 4.19863520e+00-2.03640170e-03 6.52034160e-06    3
-5.48792690e-09 1.77196800e-12-3.02937260e+04-8.49009010e-01                   4
! 
OH                      H   1O   1          G   200.000  6000.000 1000.00      1
 2.83853033e+00 1.10741289e-03-2.94000209e-07 4.20698729e-11-2.42289890e-15    2
 3.69780808e+03 5.84494652e+00 3.99198424e+00-2.40106655e-03 4.61664033e-06    3
-3.87916306e-09 1.36319502e-12 3.36889836e+03-1.03998477e-01                   4
! 
OHV                     H   1O   1          G   300.000  5000.000 1000.00      1
 2.88273000e+00 1.01397430e-03-2.27687700e-07 2.17468300e-11-5.12630500e-16    2
 5.02650000e+04 5.59571200e+00 3.63726600e+00 1.85091000e-04-1.67616460e-06    3
 2.38720200e-09-8.43144200e-13 5.00213000e+04 1.35886050e+00                   4
! 
H2O2                    H   2O   2          G   200.000  6000.000 1000.00      1
 4.57977305e+00 4.05326003e-03-1.29844730e-06 1.98211400e-10-1.13968792e-14    2
-1.80071775e+04 6.64970694e-01 4.31515149e+00-8.47390622e-04 1.76404323e-05    3
-2.26762944e-08 9.08950158e-12-1.77067437e+04 3.27373319e+00                   4
! 
HO2                     H   1O   2          G   200.000  5000.000 1000.00      1
 4.17228741e+00 1.88117627e-03-3.46277286e-07 1.94657549e-11 1.76256905e-16    2
 3.10206839e+01 2.95767672e+00 4.30179807e+00-4.74912097e-03 2.11582905e-05    3
-2.42763914e-08 9.29225225e-12 2.64018485e+02 3.71666220e+00                   4
! 
CO                      C   1O   1          G   200.000  6000.000 1000.00      1
 3.04848590e+00 1.35172810e-03-4.85794050e-07 7.88536440e-11-4.69807460e-15    2
-1.42661170e+04 6.01709770e+00 3.57953350e+00-6.10353690e-04 1.01681430e-06    3
 9.07005860e-10-9.04424490e-13-1.43440860e+04 3.50840930e+00                   4
! 
CO2                     C   1O   2          G   200.000  6000.000 1000.00      1
 4.63651110e+00 2.74145690e-03-9.95897590e-07 1.60386660e-10-9.16198570e-15    2
-4.90249040e+04-1.93489550e+00 2.35681300e+00 8.98412990e-03-7.12206320e-06    3
 2.45730080e-09-1.42885480e-13-4.83719710e+04 9.90090350e+00                   4
! 
HOCO                    C   1H   1O   2     G   200.000  6000.000 1000.00      1
 5.39206152e+00 4.11221455e-03-1.48194900e-06 2.39875460e-10-1.43903104e-14    2
-2.38606717e+04-2.23529091e+00 2.92207919e+00 7.62453859e-03 3.29884437e-06    3
-1.07135205e-08 5.11587057e-12-2.30281524e+04 1.12925886e+01                   4
! 
CH4                     C   1H   4          G   200.000  6000.000 1000.00      1
 1.65326226e+00 1.00263099e-02-3.31661238e-06 5.36483138e-10-3.14696758e-14    2
-1.00095936e+04 9.90506283e+00 5.14911468e+00-1.36622009e-02 4.91453921e-05    3
-4.84246767e-08 1.66603441e-11-1.02465983e+04-4.63848842e+00                   4
! 
CH3                     C   1H   3          G   200.000  6000.000 1000.00      1
 2.97812060e+00 5.79785200e-03-1.97558000e-06 3.07297900e-10-1.79174160e-14    2
 1.65095130e+04 4.72247990e+00 3.65717970e+00 2.12659790e-03 5.45838830e-06    3
-6.61810030e-09 2.46570740e-12 1.64227160e+04 1.67353540e+00                   4
! 
CH2                     C   1H   2          G   200.000  6000.000 1000.00      1
 3.14631886e+00 3.03671259e-03-9.96474439e-07 1.50483580e-10-8.57335515e-15    2
 4.60412605e+04 4.72341711e+00 3.71757846e+00 1.27391260e-03 2.17347251e-06    3
-3.48858500e-09 1.65208866e-12 4.58723866e+04 1.75297945e+00                   4
! 
CH2(S)                  C   1H   2          G   200.000  6000.000 1000.00      1
 3.13501686e+00 2.89593926e-03-8.16668090e-07 1.13572697e-10-6.36262835e-15    2
 5.05040504e+04 4.06030621e+00 4.19331325e+00-2.33105184e-03 8.15676451e-06    3
-6.62985981e-09 1.93233199e-12 5.03662246e+04-7.46734310e-01                   4
! 
C                       C   1               G   200.000  6000.000 1000.00      1
 2.60558300e+00-1.95934340e-04 1.06737220e-07-1.64239400e-11 8.18705800e-16    2
 8.54117420e+04 4.19238680e+00 2.55423950e+00-3.21537720e-04 7.33792230e-07    3
-7.32234870e-10 2.66521440e-13 8.54426810e+04 4.53130850e+00                   4
! 
CH                      C   1H   1          G   200.000  6000.000 1000.00      1
 2.52093690e+00 1.76536390e-03-4.61476600e-07 5.92896750e-11-3.34745010e-15    2
 7.09467690e+04 7.40518290e+00 3.48975830e+00 3.24321600e-04-1.68997510e-06    3
 3.16284200e-09-1.40618030e-12 7.06126460e+04 2.08428410e+00                   4
! 
CHV                     C   1H   1          G   300.000  5000.000 1000.00      1
 2.19622300e+00 2.34038100e-03-7.05820100e-07 9.00758200e-11-3.85504000e-15    2
 1.04195590e+05 9.17837300e+00 3.20020200e+00 2.07287500e-03-5.13443100e-06    3
 5.73389000e-09-1.95553300e-12 1.03937140e+05 3.33158700e+00                   4
! 
CH3O2H                  C   1H   4O   2     G   200.000  6000.000 1000.00      1
 7.76538058e+00 8.61499712e-03-2.98006935e-06 4.68638071e-10-2.75339255e-14    2
-1.82979984e+04-1.43992663e+01 2.90540897e+00 1.74994735e-02 5.28243630e-06    3
-2.52827275e-08 1.34368212e-11-1.68894632e+04 1.13741987e+01                   4
! 
CH3O2                   C   1H   3O   2     G   300.000  5000.000 1374.00      1
 6.47970487e+00 7.44401080e-03-2.52348555e-06 3.89577296e-10-2.25182399e-14    2
-1.56285441e+03-8.19477074e+00 1.97339205e+00 1.53542340e-02-6.37314891e-06    3
 3.19930565e-10 2.82193915e-13 2.54278835e+02 1.69194215e+01                   4
! 
CH2O2H                  C   1H   3O   2     G   300.000  5000.000 1410.00      1
 9.24697852e+00 4.60845541e-03-1.53501472e-06 2.34434830e-10-1.34573106e-14    2
 4.11529953e+03-2.11503248e+01 2.88976454e+00 2.09465776e-02-1.75190772e-05    3
 7.27819787e-09-1.18912344e-12 6.12390620e+03 1.23802076e+01                   4
! 
CH3OH                   C   1H   4O   1     G   200.000  6000.000 1000.00      1
 3.52726795e+00 1.03178783e-02-3.62892944e-06 5.77448016e-10-3.42182632e-14    2
-2.60028834e+04 5.16758693e+00 5.65851051e+00-1.62983419e-02 6.91938156e-05    3
-7.58372926e-08 2.80427550e-11-2.56119736e+04-8.97330508e-01                   4
! 
CH3O                    C   1H   3O   1     G   200.000  6000.000 1000.00      1
 4.75779238e+00 7.44142474e-03-2.69705176e-06 4.38090504e-10-2.63537098e-14    2
 3.78111940e+02-1.96680028e+00 3.71180502e+00-2.80463306e-03 3.76550971e-05    3
-4.73072089e-08 1.86588420e-11 1.29569760e+03 6.57240864e+00                   4
! 
CH2OH                   C   1H   3O   1     G   200.000  6000.000 1000.00      1
 5.09314370e+00 5.94761260e-03-2.06497460e-06 3.23008173e-10-1.88125902e-14    2
-4.03409640e+03-1.84691493e+00 4.47834367e+00-1.35070310e-03 2.78484980e-05    3
-3.64869060e-08 1.47907450e-11-3.50072890e+03 3.30913500e+00                   4
! 
CH2O                    C   1H   2O   1     G   200.000  6000.000 1000.00      1
 3.16952665e+00 6.19320560e-03-2.25056366e-06 3.65975660e-10-2.20149458e-14    2
-1.45486831e+04 6.04207898e+00 4.79372312e+00-9.90833322e-03 3.73219990e-05    3
-3.79285237e-08 1.31772641e-11-1.43791953e+04 6.02798058e-01                   4
! 
HCO                     C   1H   1O   1     G   200.000  6000.000 1000.00      1
 3.92001542e+00 2.52279324e-03-6.71004164e-07 1.05615948e-10-7.43798261e-15    2
 3.65342928e+03 3.58077056e+00 4.23754610e+00-3.32075257e-03 1.40030264e-05    3
-1.34239995e-08 4.37416208e-12 3.87241185e+03 3.30834869e+00                   4
! 
HCOH                    C   1H   2O   1     G   300.000  5000.000 1398.00      1
 9.18749272e+00 1.52011152e-03-6.27603516e-07 1.09727989e-10-6.89655128e-15    2
 7.81364593e+03-2.73434214e+01-2.82157421e+00 3.57331702e-02-3.80861580e-05    3
 1.86205951e-08-3.45957838e-12 1.12956672e+04 3.48487757e+01                   4
! 
HO2CHO                  C   1H   2O   3     G   300.000  5000.000 1378.00      1
 9.87503878e+00 4.64663708e-03-1.67230522e-06 2.68624413e-10-1.59595232e-14    2
-3.80502496e+04-2.24939155e+01 2.42464726e+00 2.19706380e-02-1.68705546e-05    3
 6.25612194e-09-9.11645843e-13-3.54828006e+04 1.75027796e+01                   4
! 
HOCH2O                  C   1H   3O   2     G   300.000  5000.000 1452.00      1
 6.39521515e+00 7.43673043e-03-2.50422354e-06 3.84879712e-10-2.21778689e-14    2
-2.41108840e+04-6.63865583e+00 4.11183145e+00 7.53850697e-03 3.77337370e-06    3
-5.38746005e-09 1.45615887e-12-2.28023001e+04 7.46807254e+00                   4
! 
O2CHO                   C   1H   1O   3     G   300.000  5000.000 1368.00      1
 7.24075139e+00 4.63312951e-03-1.63693995e-06 2.59706693e-10-1.52964699e-14    2
-1.87027618e+04-6.49547212e+00 3.96059309e+00 1.06002279e-02-5.25713351e-06    3
 1.01716726e-09-2.87487602e-14-1.73599383e+04 1.17807483e+01                   4
! 
HOCHO                   C   1H   2O   2     G   200.000  6000.000 1000.00      1
 4.61383160e+00 6.44963640e-03-2.29082510e-06 3.67160470e-10-2.18736750e-14    2
-4.75148500e+04 8.47883830e-01 3.89836160e+00-3.55877950e-03 3.55205380e-05    3
-4.38499590e-08 1.71077690e-11-4.67706090e+04 7.34953970e+00                   4
! 
OCHO                    C   1H   1O   2     G   200.000  6000.000 1000.00      1
 4.14394211e+00 5.59738818e-03-1.99794019e-06 3.16179193e-10-1.85614483e-14    2
-1.72459887e+04 5.07778617e+00 4.68825921e+00-4.14871834e-03 2.55066010e-05    3
-2.84473900e-08 1.04422559e-11-1.69867041e+04 4.28426480e+00                   4
! 
C2H6                    C   2H   6          G   200.000  6000.000 1000.00      1
 4.04666411e+00 1.53538802e-02-5.47039485e-06 8.77826544e-10-5.23167531e-14    2
-1.24473499e+04-9.68698313e-01 4.29142572e+00-5.50154901e-03 5.99438458e-05    3
-7.08466469e-08 2.68685836e-11-1.15222056e+04 2.66678994e+00                   4
! 
C2H5                    C   2H   5          G   300.000  5000.000 1387.00      1
 5.88784390e+00 1.03076793e-02-3.46844396e-06 5.32499257e-10-3.06512651e-14    2
 1.15065499e+04-8.49651771e+00 1.32730217e+00 1.76656753e-02-6.14926558e-06    3
-3.01143466e-10 4.38617775e-13 1.34284028e+04 1.71789216e+01                   4
! 
C2H5O2H                 C   2H   6O   2     G   300.000  5000.000 1390.00      1
 1.04823538e+01 1.34779879e-02-4.62179078e-06 7.18618519e-10-4.17307436e-14    2
-2.46578171e+04-2.84294243e+01 1.83755328e+00 3.38053586e-02-2.37548140e-05    3
 9.31974865e-09-1.58003428e-12-2.15814086e+04 1.80977584e+01                   4
! 
C2H5O2                  C   2H   5O   2     G   300.000  5000.000 1389.00      1
 9.50282570e+00 1.20429839e-02-4.09491581e-06 6.33049241e-10-3.66133788e-14    2
-7.37069391e+03-2.21717130e+01 3.90351912e+00 2.22599212e-02-1.01610079e-05    3
 1.71709751e-09 1.88166738e-14-5.09654081e+03 8.98722750e+00                   4
! 
C2H4                    C   2H   4          G   300.000  5000.000 1392.00      1
 5.07061289e+00 9.11140768e-03-3.10506692e-06 4.80733851e-10-2.78321396e-14    2
 3.66391217e+03-6.64501414e+00 4.81118223e-01 1.83778060e-02-9.99633565e-06    3
 2.73211039e-09-3.01837289e-13 5.44386648e+03 1.85867157e+01                   4
! 
C2H3                    C   2H   3          G   300.000  5000.000 1400.00      1
 4.99675415e+00 6.55838271e-03-2.20921909e-06 3.39300272e-10-1.95316926e-14    2
 3.34604382e+04-3.01451097e+00 1.25545094e+00 1.57481597e-02-1.12218328e-05    3
 4.50915682e-09-7.74861577e-13 3.47435574e+04 1.69664043e+01                   4
! 
CHOCHO                  C   2H   2O   2     G   300.000  5000.000 1386.00      1
 9.75438561e+00 4.97645947e-03-1.74410483e-06 2.75586994e-10-1.61969892e-14    2
-2.95832896e+04-2.61878329e+01 1.88105120e+00 2.36386368e-02-1.83443295e-05    3
 6.84842963e-09-9.92733674e-13-2.69280190e+04 1.59154793e+01                   4
! 
C2H3OOH                 C   2H   4O   2     G   300.000  5000.000 1397.00      1
 1.15749951e+01 8.09909174e-03-2.81808668e-06 4.42697954e-10-2.58998042e-14    2
-8.84852664e+03-3.43859117e+01 1.35644398e+00 3.37002447e-02-2.75988500e-05    3
 1.14222854e-08-1.89488886e-12-5.49996692e+03 1.98354466e+01                   4
! 
C2H3OO                  C   2H   3O   2     G   298.150  2000.000 1000.00      1
 6.04483828e+00 1.45511127e-02-7.50974622e-06 1.83488280e-09-1.66689681e-13    2
 1.01699244e+04-3.71144913e+00 1.09784776e+00 2.95333237e-02-2.27744360e-05    3
 7.20559155e-09-3.07929092e-13 1.13996101e+04 2.13563583e+01                   4
! 
CHCHO                   C   2H   2O   1     G   298.150  2000.000 1000.00      1
 4.92632910e+00 9.71712147e-03-5.54855980e-06 1.53068537e-09-1.64742462e-13    2
 2.89499494e+04 5.27874677e-01 2.33256751e+00 1.62952986e-02-9.72052177e-06    3
 5.15124155e-10 1.03836514e-12 2.96585452e+04 1.39904923e+01                   4
! 
C2H2                    C   2H   2          G   200.000  6000.000 1000.00      1
 4.65878489e+00 4.88396667e-03-1.60828888e-06 2.46974544e-10-1.38605959e-14    2
 2.57594042e+04-3.99838194e+00 8.08679682e-01 2.33615762e-02-3.55172234e-05    3
 2.80152958e-08-8.50075165e-12 2.64289808e+04 1.39396761e+01                   4
! 
C2H                     C   2H   1          G   200.000  6000.000 1000.00      1
 3.66270248e+00 3.82492252e-03-1.36632500e-06 2.13455040e-10-1.23216848e-14    2
 6.71683790e+04 3.92205792e+00 2.89867676e+00 1.32988489e-02-2.80733327e-05    3
 2.89484755e-08-1.07502351e-11 6.70616050e+04 6.18547632e+00                   4
! 
H2CC                    C   2H   2          G   200.000  6000.000 1000.00      1
 4.27803400e+00 4.75628040e-03-1.63010090e-06 2.54628060e-10-1.48863790e-14    2
 4.83166880e+04 6.40237010e-01 3.28154830e+00 6.97647910e-03-2.38552440e-06    3
-1.21044320e-09 9.81895450e-13 4.86217940e+04 5.92039100e+00                   4
! 
C2H5OH                  C   2H   6O   1     G   300.000  5000.000 1402.00      1
 8.14483865e+00 1.28314052e-02-4.29052743e-06 6.55971721e-10-3.76506611e-14    2
-3.24005526e+04-1.86241126e+01 2.15805861e-01 2.95228396e-02-1.68271048e-05    3
 4.49484797e-09-4.02451543e-13-2.94851823e+04 2.45725052e+01                   4
! 
C2H5O                   C   2H   5O   1     G   300.000  5000.000 1467.00      1
 8.19120635e+00 1.10391986e-02-3.75270536e-06 5.80275784e-10-3.35735146e-14    2
-5.66847208e+03-1.90131344e+01 2.90353584e+00 1.77256708e-02-2.69624757e-06    3
-3.45830533e-09 1.25224784e-12-3.28930290e+03 1.13545591e+01                   4
! 
PC2H4OH                 C   2H   5O   1     G   300.000  5000.000 1395.00      1
 8.06750150e+00 1.06143554e-02-3.57999360e-06 5.50363760e-10-3.17051769e-14    2
-6.92747939e+03-1.53833428e+01 2.59479867e+00 2.27100669e-02-1.39473846e-05    3
 4.70095591e-09-6.90044236e-13-4.91486975e+03 1.43240718e+01                   4
! 
SC2H4OH                 C   2H   5O   1     G   300.000  5000.000 1385.00      1
 8.15007136e+00 1.02549305e-02-3.40137764e-06 5.17509965e-10-2.96128942e-14    2
-1.05014386e+04-1.73134615e+01 1.46281093e+00 2.39193995e-02-1.30667185e-05    3
 3.10615465e-09-1.85896007e-13-8.00790323e+03 1.92547092e+01                   4
! 
O2C2H4OH                C   2H   5O   3     G   300.000  5000.000 1506.00      1
 1.27503881e+01 1.11514325e-02-3.83473891e-06 5.98155829e-10-3.48372108e-14    2
-2.52770876e+04-3.54317608e+01 7.04009800e+00 1.59564166e-02 2.21097416e-06    3
-7.05197355e-09 2.08266026e-12-2.24524432e+04-1.75361758e+00                   4
! 
C2H4O2H                 C   2H   5O   2     G   300.000  5000.000 1389.00      1
 1.00590614e+01 1.13378955e-02-3.89403387e-06 6.06090687e-10-3.52212353e-14    2
 4.24048653e+02-2.32086536e+01 2.75788364e+00 2.88271987e-02-2.08302264e-05    3
 8.47401397e-09-1.48617610e-12 3.00153893e+03 1.59921711e+01                   4
! 
C2H4O1-2                C   2H   4O   1     G   200.000  6000.000 1000.00      1
 5.48876410e+00 1.20461900e-02-4.33369310e-06 7.00283110e-10-4.19490880e-14    2
-9.18042510e+03-7.07996050e+00 3.75905320e+00-9.44121800e-03 8.03097210e-05    3
-1.00807880e-07 4.00399210e-11-7.56081430e+03 7.84974750e+00                   4
! 
C2H3O1-2                C   2H   3O   1     G   200.000  6000.000 1000.00      1
 5.60158035e+00 9.17613962e-03-3.28028902e-06 5.27903888e-10-3.15362241e-14    2
 1.71446252e+04-5.47228512e+00 3.58349017e+00-6.02275805e-03 6.32426867e-05    3
-8.18540707e-08 3.30444505e-11 1.85681353e+04 9.59725926e+00                   4
! 
CH3CHO                  C   2H   4O   1     G   200.000  6000.000 1000.00      1
 5.40411080e+00 1.17230590e-02-4.22631370e-06 6.83724510e-10-4.09848630e-14    2
-2.25931220e+04-3.48079170e+00 4.72945950e+00-3.19328580e-03 4.75349210e-05    3
-5.74586110e-08 2.19311120e-11-2.15728780e+04 4.10301590e+00                   4
! 
CH3CO                   C   2H   3O   1     G   200.000  6000.000 1000.00      1
 5.31371650e+00 9.17377930e-03-3.32203860e-06 5.39474560e-10-3.24523680e-14    2
-3.64504140e+03-1.67575580e+00 4.03587050e+00 8.77294870e-04 3.07100100e-05    3
-3.92475650e-08 1.52968690e-11-2.68207380e+03 7.86176820e+00                   4
! 
CH2CHO                  C   2H   3O   1     G   200.000  6000.000 1000.00      1
 6.53928338e+00 7.80238629e-03-2.76413612e-06 4.42098906e-10-2.62954290e-14    2
-1.18858659e+03-8.72091393e+00 2.79502600e+00 1.01099472e-02 1.61750645e-05    3
-3.10303145e-08 1.39436139e-11 1.62944975e+02 1.23646657e+01                   4
! 
O2CH2CHO                C   2H   3O   3     G   300.000  5000.000 1393.00      1
 1.11807543e+01 9.14479256e-03-3.15089833e-06 4.91944238e-10-2.86639180e-14    2
-1.55790331e+04-2.87892740e+01-1.29465843e+00 4.44936393e-02-4.26577074e-05    3
 2.07391950e-08-3.96828771e-12-1.18275628e+04 3.60778797e+01                   4
! 
HO2CH2CO                C   2H   3O   3     G   300.000  5000.000 1386.00      1
 1.04146322e+01 1.12680116e-02-5.17494839e-06 1.00333285e-09-6.68165911e-14    2
-1.40955672e+04-2.27894400e+01 2.22681686e+00 3.56781380e-02-3.26401909e-05    3
 1.47651988e-08-2.64794380e-12-1.18735095e+04 1.91581197e+01                   4
! 
C2H3OH                  C   2H   4O   1     G   300.000  5000.000 1410.00      1
 8.32598158e+00 8.03387281e-03-2.63928405e-06 3.98410726e-10-2.26551155e-14    2
-1.83221436e+04-2.02080305e+01-1.27972260e-01 3.38506073e-02-3.30644935e-05    3
 1.64858739e-08-3.19935455e-12-1.59914544e+04 2.30438601e+01                   4
! 
C2H2OH                  C   2H   3O   1     G   300.000  5000.000 1401.00      1
 8.20268447e+00 5.92989165e-03-1.99194448e-06 3.05794341e-10-1.76114732e-14    2
 1.24881328e+04-1.89670436e+01 6.41642616e-01 2.61903633e-02-2.30385370e-05    3
 1.02804704e-08-1.81971416e-12 1.48276951e+04 2.06750999e+01                   4
! 
CH2CO                   C   2H   2O   1     G   300.000  5000.000 1000.00      1
 5.35869367e+00 6.95641586e-03-2.64802637e-06 4.65067592e-10-3.08641820e-14    2
-7.90294013e+03-3.98525731e+00 1.81422511e+00 1.99008590e-02-2.21416008e-05    3
 1.45028521e-08-3.98877068e-12-7.05394926e+03 1.36079359e+01                   4
! 
HCCO                    C   2H   1O   1     G   200.000  6000.000 1000.00      1
 5.91479333e+00 3.71408730e-03-1.30137010e-06 2.06473345e-10-1.21476759e-14    2
 1.93596301e+04-5.50567269e+00 1.87607969e+00 2.21205418e-02-3.58869325e-05    3
 3.05402541e-08-1.01281069e-11 2.01633840e+04 1.36968290e+01                   4
! 
HCCOH                   C   2H   2O   1     G   200.000  6000.000 1000.00      1
 6.37509678e+00 5.49429011e-03-1.88136576e-06 2.93803536e-10-1.71771901e-14    2
 8.93277676e+03-8.24498007e+00 2.05541154e+00 2.52003372e-02-3.80821654e-05    3
 3.09890632e-08-9.89799902e-12 9.76872113e+03 1.22271534e+01                   4
! 
CH3CO3H                 C   2H   4O   3     G   300.000  5000.000 1391.00      1
 1.25060485e+01 9.47789695e-03-3.30402246e-06 5.19630793e-10-3.04233568e-14    2
-4.59856703e+04-3.79195947e+01 2.24135876e+00 3.37963514e-02-2.53887482e-05    3
 9.67583587e-09-1.49266157e-12-4.24677831e+04 1.70668133e+01                   4
! 
CH3CO3                  C   2H   3O   3     G   300.000  5000.000 1391.00      1
 1.12522498e+01 8.33652672e-03-2.89014530e-06 4.52781734e-10-2.64354456e-14    2
-2.60238584e+04-2.96370457e+01 3.60373432e+00 2.70080341e-02-2.08293438e-05    3
 8.50541104e-09-1.43846110e-12-2.34205171e+04 1.12014914e+01                   4
! 
CH3CO2                  C   2H   3O   2     G   300.000  5000.000 1395.00      1
 8.54059736e+00 8.32951214e-03-2.84722010e-06 4.41927196e-10-2.56373394e-14    2
-2.97290678e+04-2.03883545e+01 1.37440768e+00 2.49115604e-02-1.74308894e-05    3
 6.24799508e-09-9.09516835e-13-2.72330150e+04 1.81405454e+01                   4
! 
CH3OCH3                 C   2H   6O   1     G   300.000  5000.000 1999.00      1
 6.03232751e+00 1.56155270e-02-5.50761030e-06 8.75666140e-10-5.17180562e-14    2
-2.52690354e+04-8.25885183e+00 2.05597390e+00 2.07019456e-02-5.00382376e-06    3
-1.62279885e-09 6.84330155e-13-2.35494445e+04 1.45029944e+01                   4
! 
CH3OCH2                 C   2H   5O   1     G   300.000  5000.000 1395.00      1
 6.62621974e+00 1.22219496e-02-4.12416696e-06 6.34127512e-10-3.65317390e-14    2
-3.33965890e+03-8.95305753e+00 1.58874948e+00 2.24414123e-02-1.19434933e-05    3
 3.37160213e-09-4.15077249e-13-1.37208255e+03 1.87548958e+01                   4
! 
C3H8                    C   3H   8          G   300.000  5000.000 1390.00      1
 9.15541310e+00 1.72574139e-02-5.85614868e-06 9.04190155e-10-5.22523772e-14    2
-1.75762439e+04-2.77418510e+01 2.40878470e-01 3.39548599e-02-1.60930874e-05    3
 2.83480628e-09 2.78195172e-14-1.40362853e+04 2.16500800e+01                   4
! 
IC3H7                   C   3H   7          G   298.000  6000.000 1000.00      1
 6.70775549e+00 1.74048076e-02-6.07615926e-06 9.60084351e-10-5.65656490e-14    2
 7.55377821e+03-1.03686516e+01-8.97467137e-01 4.15744022e-02-4.94778349e-05    3
 4.56493655e-08-1.79085437e-11 9.93950407e+03 2.92641758e+01                   4
! 
NC3H7                   C   3H   7          G   298.000  6000.000 1000.00      1
 7.48614243e+00 1.65769478e-02-5.74876481e-06 9.04103694e-10-5.30867231e-14    2
 8.93710008e+03-1.42595379e+01-2.20120865e+00 5.29641653e-02-7.23640506e-05    3
 6.36996940e-08-2.29332581e-11 1.15130744e+04 3.43669174e+01                   4
! 
NC3H7O2H                C   3H   8O   2     G   300.000  5000.000 1392.00      1
 1.42246236e+01 1.74340964e-02-5.97063522e-06 9.27753851e-10-5.38585168e-14    2
-2.88159737e+04-4.74357865e+01 1.35815897e+00 4.56683952e-02-2.91646368e-05    3
 9.41701313e-09-1.22337394e-12-2.41528416e+04 2.23322825e+01                   4
! 
NC3H7O2                 C   3H   7O   2     G   300.000  5000.000 1390.00      1
 1.32753283e+01 1.61303126e-02-5.52348308e-06 8.58197168e-10-4.98172586e-14    2
-1.16032968e+04-4.15091215e+01 2.13311681e+00 3.96692045e-02-2.37570127e-05    3
 6.96020417e-09-7.82576856e-13-7.46687112e+03 1.92444565e+01                   4
! 
IC3H7O2                 C   3H   7O   2     G   300.000  5000.000 1407.00      1
 1.35268120e+01 1.54306581e-02-5.17464218e-06 7.92548669e-10-4.55415379e-14    2
-1.33946348e+04-4.40461451e+01 2.58517502e+00 4.16107259e-02-2.92193877e-05    3
 1.08614807e-08-1.66312005e-12-9.67013161e+03 1.44731300e+01                   4
! 
NC3H7O                  C   3H   7O   1     G   300.000  5000.000 1386.00      1
 1.15279177e+01 1.53775991e-02-5.23946272e-06 8.11382512e-10-4.69927603e-14    2
-9.85099867e+03-3.54233008e+01 2.57486880e+00 3.07100600e-02-1.20048836e-05    3
 3.40807108e-12 7.25275283e-13-6.20913350e+03 1.45966401e+01                   4
! 
IC3H7O                  C   3H   7O   1     G   300.000  5000.000 1527.00      1
 1.19648494e+01 1.42943974e-02-4.71413211e-06 7.14027066e-10-4.07161162e-14    2
-1.17519389e+04-3.88860959e+01 2.36108410e+00 3.45650027e-02-1.94579631e-05    3
 4.71536901e-09-2.64704937e-13-8.28791395e+03 1.33112436e+01                   4
! 
C3H6OOH1-2              C   3H   7O   2     G   300.000  5000.000 1387.00      1
 1.38088686e+01 1.43845650e-02-4.74440961e-06 7.19308280e-10-4.10654123e-14    2
-5.14352831e+03-4.20210765e+01 2.83631132e+00 3.88229894e-02-2.47944364e-05    3
 7.85644898e-09-9.58634300e-13-1.26002528e+03 1.72549973e+01                   4
! 
C3H6OOH1-3              C   3H   7O   2     G   300.000  5000.000 1401.00      1
 1.39130757e+01 1.40218463e-02-4.55921149e-06 6.84182417e-10-3.87696213e-14    2
-3.65650518e+03-4.21532559e+01 1.74271107e+00 4.53733504e-02-3.57580373e-05    3
 1.48540053e-08-2.49981756e-12 2.32580844e+02 2.20973041e+01                   4
! 
C3H6OOH2-1              C   3H   7O   2     G   300.000  5000.000 1393.00      1
 1.36645362e+01 1.54329764e-02-5.29285952e-06 8.23001262e-10-4.77931121e-14    2
-5.58295862e+03-4.28758364e+01 2.38465746e+00 4.42928555e-02-3.50977087e-05    3
 1.53695144e-08-2.81167824e-12-1.80979612e+03 1.69923285e+01                   4
! 
C3H6OOH1-2O2            C   3H   7O   4     G   300.000  5000.000 1404.00      1
 1.91044980e+01 1.44076100e-02-4.72127814e-06 7.12631642e-10-4.05578490e-14    2
-2.50270510e+04-6.63747978e+01 3.99085043e+00 5.31865338e-02-4.28597948e-05    3
 1.77187019e-08-2.92768695e-12-2.02143526e+04 1.34150719e+01                   4
! 
C3H6OOH1-3O2            C   3H   7O   4     G   300.000  5000.000 1416.00      1
 1.81661664e+01 1.47644887e-02-4.74842743e-06 7.06972467e-10-3.98305587e-14    2
-2.26256376e+04-5.93719393e+01 5.56933350e+00 4.68523421e-02-3.58917784e-05    3
 1.43314525e-08-2.29776083e-12-1.86065694e+04 7.18655005e+00                   4
! 
C3H6OOH2-1O2            C   3H   7O   4     G   300.000  5000.000 1404.00      1
 1.91044980e+01 1.44076100e-02-4.72127814e-06 7.12631642e-10-4.05578490e-14    2
-2.50270510e+04-6.63747978e+01 3.99085043e+00 5.31865338e-02-4.28597948e-05    3
 1.77187019e-08-2.92768695e-12-2.02143526e+04 1.34150719e+01                   4
! 
C3KET12                 C   3H   6O   3     G   300.000  5000.000 1385.00      1
 1.70187760e+01 1.32097361e-02-4.67054741e-06 7.41411770e-10-4.36869787e-14    2
-4.23572589e+04-5.92615939e+01 1.03882879e+00 5.34180080e-02-4.47684141e-05    3
 1.94651680e-08-3.45055244e-12-3.70308881e+04 2.56511209e+01                   4
! 
C3KET13                 C   3H   6O   3     G   300.000  5000.000 1508.00      1
 1.73612692e+01 1.32330813e-02-4.75332110e-06 7.62529227e-10-4.52613717e-14    2
-4.06248060e+04-6.17768199e+01 4.74956819e+00 3.14080991e-02-6.83838427e-06    3
-5.67123901e-09 2.27686972e-12-3.51924570e+04 9.83753744e+00                   4
! 
C3H51-2,3OOH            C   3H   7O   4     G   300.000  5000.000 1386.00      1
 2.12378169e+01 1.39519596e-02-4.94539222e-06 7.86381389e-10-4.63925564e-14    2
-1.92864584e+04-7.69636561e+01 2.55619708e+00 6.13504487e-02-5.23205391e-05    3
 2.28208029e-08-4.02231508e-12-1.31353414e+04 2.21043799e+01                   4
! 
C3H52-1,3OOH            C   3H   7O   4     G   300.000  5000.000 1379.00      1
 2.02817964e+01 1.48155431e-02-5.25503386e-06 8.35963453e-10-4.93308915e-14    2
-1.80085066e+04-7.22688262e+01 4.12253742e+00 5.19553611e-02-3.83733727e-05    3
 1.45851637e-08-2.29820536e-12-1.22759164e+04 1.48367359e+01                   4
! 
C3H5O1-2OOH-3           C   3H   6O   3     G   300.000  5000.000 1432.00      1
 1.57042382e+01 1.30255692e-02-4.23544254e-06 6.35555595e-10-3.60110207e-14    2
-2.77269333e+04-5.51895464e+01-3.25001215e+00 6.65787151e-02-6.18859778e-05    3
 2.84638649e-08-5.08511634e-12-2.22371240e+04 4.30381280e+01                   4
! 
C3H6O1-2                C   3H   6O   1     G   200.000  6000.000 1000.00      1
 8.01491079e+00 1.73919953e-02-6.26027968e-06 1.01188256e-09-6.06239111e-14    2
-1.51980838e+04-1.88279964e+01 3.42806676e+00 6.25176642e-03 6.13196311e-05    3
-8.60387185e-08 3.51371393e-11-1.28446646e+04 1.04244994e+01                   4
! 
C3H6O1-3                C   3H   6O   1     G   200.000  6000.000 1000.00      1
 6.80716906e+00 1.88824545e-02-6.79082475e-06 1.09713919e-09-6.57154952e-14    2